1b8y_IN7


 28 30  0  0  0  0  0  0  0  0999 V2000
    1.7083    1.8848    4.8833 C   0  0  0  0  0  0  0  0  0  0  0  0
    2.2127    2.3875    3.5631 C   0  0  0  0  0  0  0  0  0  0  0  0
    1.2769    3.0799    2.6171 C   0  0  0  0  0  0  0  0  0  0  0  0
   -0.1632    3.2695    2.9912 C   0  0  0  0  0  0  0  0  0  0  0  0
   -0.6676    2.7667    4.3113 C   0  0  0  0  0  0  0  0  0  0  0  0
    0.2682    2.0744    5.2574 C   0  0  0  0  0  0  0  0  0  0  0  0
   -1.0990    3.9618    2.0451 N   0  0  0  0  0  0  0  0  0  0  0  0
   -0.5601    4.6476    0.8249 C   0  0  0  0  0  0  0  0  0  0  0  0
   -1.4958    5.3400   -0.1212 C   0  0  0  0  0  0  0  0  0  0  0  0
   -2.9705    5.3465    0.1530 C   0  0  0  0  0  0  0  0  0  0  0  0
   -3.5094    4.6606    1.3733 C   0  0  0  0  0  0  0  0  0  0  0  0
   -2.5736    3.9683    2.3194 C   0  0  0  0  0  0  0  0  0  0  0  0
   -3.9063    6.0388   -0.7930 C   0  0  0  0  0  0  0  0  0  0  0  0
   -3.9085    7.5360   -0.8844 C   0  0  0  0  0  0  0  0  0  0  0  0
   -4.8442    8.2283   -1.8304 C   0  0  0  0  0  0  0  0  0  0  0  0
   -5.7778    7.4234   -2.6851 C   0  0  0  0  0  0  0  0  0  0  0  0
   -5.7756    5.9263   -2.5938 C   0  0  0  0  0  0  0  0  0  0  0  0
   -4.8399    5.2339   -1.6477 C   0  0  0  0  0  0  0  0  0  0  0  0
    2.6441    1.1925    5.8293 S   0  0  0  0  0  0  0  0  0  0  0  0
    1.7450    1.5454    6.9770 O   0  0  0  0  0  0  0  0  0  0  0  0
    3.5432    0.8395    4.6817 O   0  0  0  0  0  0  0  0  0  0  0  0
    3.5799    0.5001    6.7754 N   0  0  0  0  0  0  0  0  0  0  0  0
    3.3880   -0.4561    7.0740 H   0  0  0  0  0  0  0  0  0  0  0  0
    4.7978    1.2140    7.2824 C   0  0  0  0  0  0  0  0  0  0  0  0
    3.9936    3.4269    6.1840 O   0  0  0  0  0  0  0  0  0  0  0  0
    4.9237    2.6986    7.1083 C   0  0  0  0  0  0  0  0  0  0  0  0
    5.9798    3.4547    7.8586 O   0  0  0  0  0  0  0  0  0  0  0  0
    6.0585    4.3821    7.7499 H   0  0  0  0  0  0  0  0  0  0  0  0
 25 26  2  0
 26 27  1  0
 26 24  1  0
 24 22  1  0
 22 19  1  0
 19 20  2  0
 19 21  2  0
 19  1  1  0
  1  2  2  0
  1  6  1  0
  2  3  1  0
  3  4  2  0
  4  7  1  0
  4  5  1  0
  7  8  1  0
  7 12  1  0
  8  9  1  0
  9 10  1  0
 10 13  1  0
 10 11  1  0
 13 14  2  0
 13 18  1  0
 14 15  1  0
 15 16  2  0
 16 17  1  0
 17 18  2  0
 11 12  1  0
  5  6  2  0
 27 28  1  0
 22 23  1  0
M  END
> <i_m_Source_File_Index>
122

> <b_m_subgroup_collapsed>
0

> <s_m_Source_File>
1077.sdf

> <s_m_Source_Path>
C:\Users\hhhx5\OneDrive - University of Missouri\My postDoc working\My metting\19-03-2024\11\create 1077Data

> <s_m_entry_id>
122

> <s_m_entry_name>
1077.122

> <s_m_subgroup_title>
1077

> <s_m_subgroupid>
1077

> <minimizedAffinity>
-0.48427

> <CNNscore>
0.7356235981

> <CNNaffinity>
4.2150154114

> <CNN_VS>
3.1006648540

> <CNNaffinity_variance>
0.7539021969

$$$$
1b8y_IN7


 28 30  0  0  0  0  0  0  0  0999 V2000
    3.5321    2.9534    6.9192 C   0  0  0  0  0  0  0  0  0  0  0  0
    2.6811    2.3751    8.0106 C   0  0  0  0  0  0  0  0  0  0  0  0
    1.3727    1.7226    7.6755 C   0  0  0  0  0  0  0  0  0  0  0  0
    0.9153    1.6484    6.2488 C   0  0  0  0  0  0  0  0  0  0  0  0
    1.7664    2.2266    5.1574 C   0  0  0  0  0  0  0  0  0  0  0  0
    3.0748    2.8791    5.4926 C   0  0  0  0  0  0  0  0  0  0  0  0
   -0.3930    0.9959    5.9137 N   0  0  0  0  0  0  0  0  0  0  0  0
   -0.8437    0.9090    4.4856 C   0  0  0  0  0  0  0  0  0  0  0  0
   -2.1521    0.2565    4.1504 C   0  0  0  0  0  0  0  0  0  0  0  0
   -3.0098   -0.3091    5.2433 C   0  0  0  0  0  0  0  0  0  0  0  0
   -2.5592   -0.2223    6.6713 C   0  0  0  0  0  0  0  0  0  0  0  0
   -1.2508    0.4302    7.0065 C   0  0  0  0  0  0  0  0  0  0  0  0
   -4.3182   -0.9616    4.9081 C   0  0  0  0  0  0  0  0  0  0  0  0
   -4.9882   -0.6695    3.5982 C   0  0  0  0  0  0  0  0  0  0  0  0
   -6.2966   -1.3220    3.2631 C   0  0  0  0  0  0  0  0  0  0  0  0
   -6.9350   -2.2666    4.2377 C   0  0  0  0  0  0  0  0  0  0  0  0
   -6.2650   -2.5588    5.5476 C   0  0  0  0  0  0  0  0  0  0  0  0
   -4.9567   -1.9063    5.8827 C   0  0  0  0  0  0  0  0  0  0  0  0
    4.8405    3.6059    7.2544 S   0  0  0  0  0  0  0  0  0  0  0  0
    4.4236    4.8313    6.4964 O   0  0  0  0  0  0  0  0  0  0  0  0
    5.2575    2.3805    8.0124 O   0  0  0  0  0  0  0  0  0  0  0  0
    6.1489    4.2584    7.5896 N   0  0  0  0  0  0  0  0  0  0  0  0
    6.3743    4.4808    8.5592 H   0  0  0  0  0  0  0  0  0  0  0  0
    7.1259    4.5838    6.4989 C   0  0  0  0  0  0  0  0  0  0  0  0
    8.5294    6.7525    6.7758 O   0  0  0  0  0  0  0  0  0  0  0  0
    7.3930    6.0138    6.1333 C   0  0  0  0  0  0  0  0  0  0  0  0
    6.5235    6.7052    5.1252 O   0  0  0  0  0  0  0  0  0  0  0  0
    6.6904    7.5985    4.8969 H   0  0  0  0  0  0  0  0  0  0  0  0
 25 26  2  0
 26 27  1  0
 26 24  1  0
 24 22  1  0
 22 19  1  0
 19 20  2  0
 19 21  2  0
 19  1  1  0
  1  2  2  0
  1  6  1  0
  2  3  1  0
  3  4  2  0
  4  7  1  0
  4  5  1  0
  7  8  1  0
  7 12  1  0
  8  9  1  0
  9 10  1  0
 10 13  1  0
 10 11  1  0
 13 14  2  0
 13 18  1  0
 14 15  1  0
 15 16  2  0
 16 17  1  0
 17 18  2  0
 11 12  1  0
  5  6  2  0
 27 28  1  0
 22 23  1  0
M  END
> <i_m_Source_File_Index>
122

> <b_m_subgroup_collapsed>
0

> <s_m_Source_File>
1077.sdf

> <s_m_Source_Path>
C:\Users\hhhx5\OneDrive - University of Missouri\My postDoc working\My metting\19-03-2024\11\create 1077Data

> <s_m_entry_id>
122

> <s_m_entry_name>
1077.122

> <s_m_subgroup_title>
1077

> <s_m_subgroupid>
1077

> <minimizedAffinity>
-2.39998

> <CNNscore>
0.6965050697

> <CNNaffinity>
4.1439499855

> <CNN_VS>
2.8862822056

> <CNNaffinity_variance>
0.5749152899

$$$$
1b8y_IN7


 28 30  0  0  0  0  0  0  0  0999 V2000
    4.3124    1.9721    6.5906 C   0  0  0  0  0  0  0  0  0  0  0  0
    3.6780    1.1530    5.5059 C   0  0  0  0  0  0  0  0  0  0  0  0
    2.4269    0.3751    5.7878 C   0  0  0  0  0  0  0  0  0  0  0  0
    1.8101    0.4163    7.1545 C   0  0  0  0  0  0  0  0  0  0  0  0
    2.4444    1.2354    8.2392 C   0  0  0  0  0  0  0  0  0  0  0  0
    3.6956    2.0133    7.9572 C   0  0  0  0  0  0  0  0  0  0  0  0
    0.5589   -0.3616    7.4364 N   0  0  0  0  0  0  0  0  0  0  0  0
   -0.0669   -0.3075    8.7985 C   0  0  0  0  0  0  0  0  0  0  0  0
   -1.3181   -1.0854    9.0805 C   0  0  0  0  0  0  0  0  0  0  0  0
   -1.9434   -1.9174    8.0003 C   0  0  0  0  0  0  0  0  0  0  0  0
   -1.3175   -1.9715    6.6382 C   0  0  0  0  0  0  0  0  0  0  0  0
   -0.0664   -1.1936    6.3563 C   0  0  0  0  0  0  0  0  0  0  0  0
   -3.1945   -2.6953    8.2823 C   0  0  0  0  0  0  0  0  0  0  0  0
   -4.3813   -2.0112    8.8935 C   0  0  0  0  0  0  0  0  0  0  0  0
   -5.6324   -2.7891    9.1754 C   0  0  0  0  0  0  0  0  0  0  0  0
   -5.6968   -4.2511    8.8462 C   0  0  0  0  0  0  0  0  0  0  0  0
   -4.5101   -4.9352    8.2350 C   0  0  0  0  0  0  0  0  0  0  0  0
   -3.2589   -4.1573    7.9531 C   0  0  0  0  0  0  0  0  0  0  0  0
    5.5635    2.7500    6.3086 S   0  0  0  0  0  0  0  0  0  0  0  0
    5.0525    3.0744    4.9361 O   0  0  0  0  0  0  0  0  0  0  0  0
    6.0745    2.4256    7.6811 O   0  0  0  0  0  0  0  0  0  0  0  0
    6.8147    3.5279    6.0266 N   0  0  0  0  0  0  0  0  0  0  0  0
    7.4232    3.2531    5.2555 H   0  0  0  0  0  0  0  0  0  0  0  0
    7.1709    4.7099    6.8786 C   0  0  0  0  0  0  0  0  0  0  0  0
    8.6653    6.8171    6.6023 O   0  0  0  0  0  0  0  0  0  0  0  0
    7.4328    6.0422    6.2412 C   0  0  0  0  0  0  0  0  0  0  0  0
    6.4621    6.5996    5.2427 O   0  0  0  0  0  0  0  0  0  0  0  0
    6.6256    7.4319    4.8445 H   0  0  0  0  0  0  0  0  0  0  0  0
 25 26  2  0
 26 27  1  0
 26 24  1  0
 24 22  1  0
 22 19  1  0
 19 20  2  0
 19 21  2  0
 19  1  1  0
  1  2  2  0
  1  6  1  0
  2  3  1  0
  3  4  2  0
  4  7  1  0
  4  5  1  0
  7  8  1  0
  7 12  1  0
  8  9  1  0
  9 10  1  0
 10 13  1  0
 10 11  1  0
 13 14  2  0
 13 18  1  0
 14 15  1  0
 15 16  2  0
 16 17  1  0
 17 18  2  0
 11 12  1  0
  5  6  2  0
 27 28  1  0
 22 23  1  0
M  END
> <i_m_Source_File_Index>
122

> <b_m_subgroup_collapsed>
0

> <s_m_Source_File>
1077.sdf

> <s_m_Source_Path>
C:\Users\hhhx5\OneDrive - University of Missouri\My postDoc working\My metting\19-03-2024\11\create 1077Data

> <s_m_entry_id>
122

> <s_m_entry_name>
1077.122

> <s_m_subgroup_title>
1077

> <s_m_subgroupid>
1077

> <minimizedAffinity>
-2.25636

> <CNNscore>
0.6563011408

> <CNNaffinity>
4.1702938080

> <CNN_VS>
2.7369685173

> <CNNaffinity_variance>
0.0371857136

$$$$
1b8y_IN7


 28 30  0  0  0  0  0  0  0  0999 V2000
    3.4582    4.0589    5.8733 C   0  0  0  0  0  0  0  0  0  0  0  0
    2.8705    2.6800    5.8172 C   0  0  0  0  0  0  0  0  0  0  0  0
    1.4327    2.4926    5.4332 C   0  0  0  0  0  0  0  0  0  0  0  0
    0.5825    3.6841    5.1055 C   0  0  0  0  0  0  0  0  0  0  0  0
    1.1702    5.0630    5.1617 C   0  0  0  0  0  0  0  0  0  0  0  0
    2.6081    5.2504    5.5456 C   0  0  0  0  0  0  0  0  0  0  0  0
   -0.8554    3.4968    4.7215 N   0  0  0  0  0  0  0  0  0  0  0  0
   -1.9273    4.2739    5.4265 C   0  0  0  0  0  0  0  0  0  0  0  0
   -3.3652    4.0865    5.0426 C   0  0  0  0  0  0  0  0  0  0  0  0
   -3.7311    3.1220    3.9536 C   0  0  0  0  0  0  0  0  0  0  0  0
   -2.6592    2.3449    3.2486 C   0  0  0  0  0  0  0  0  0  0  0  0
   -1.2213    2.5323    3.6326 C   0  0  0  0  0  0  0  0  0  0  0  0
   -5.1690    2.9347    3.5697 C   0  0  0  0  0  0  0  0  0  0  0  0
   -6.2020    3.9216    4.0265 C   0  0  0  0  0  0  0  0  0  0  0  0
   -7.6399    3.7342    3.6426 C   0  0  0  0  0  0  0  0  0  0  0  0
   -8.0447    2.5599    2.8018 C   0  0  0  0  0  0  0  0  0  0  0  0
   -7.0117    1.5729    2.3450 C   0  0  0  0  0  0  0  0  0  0  0  0
   -5.5739    1.7603    2.7289 C   0  0  0  0  0  0  0  0  0  0  0  0
    4.8961    4.2463    6.2573 S   0  0  0  0  0  0  0  0  0  0  0  0
    4.4861    5.2298    7.3130 O   0  0  0  0  0  0  0  0  0  0  0  0
    5.3062    3.2627    5.2016 O   0  0  0  0  0  0  0  0  0  0  0  0
    6.3340    4.4336    6.6412 N   0  0  0  0  0  0  0  0  0  0  0  0
    7.0168    4.7167    5.9384 H   0  0  0  0  0  0  0  0  0  0  0  0
    6.7677    4.2048    8.0588 C   0  0  0  0  0  0  0  0  0  0  0  0
    8.6111    2.3840    8.2492 O   0  0  0  0  0  0  0  0  0  0  0  0
    7.2036    2.8386    8.4985 C   0  0  0  0  0  0  0  0  0  0  0  0
    6.2319    1.9269    9.1875 O   0  0  0  0  0  0  0  0  0  0  0  0
    6.5042    1.0734    9.4622 H   0  0  0  0  0  0  0  0  0  0  0  0
 25 26  2  0
 26 27  1  0
 26 24  1  0
 24 22  1  0
 22 19  1  0
 19 20  2  0
 19 21  2  0
 19  1  1  0
  1  2  2  0
  1  6  1  0
  2  3  1  0
  3  4  2  0
  4  7  1  0
  4  5  1  0
  7  8  1  0
  7 12  1  0
  8  9  1  0
  9 10  1  0
 10 13  1  0
 10 11  1  0
 13 14  2  0
 13 18  1  0
 14 15  1  0
 15 16  2  0
 16 17  1  0
 17 18  2  0
 11 12  1  0
  5  6  2  0
 27 28  1  0
 22 23  1  0
M  END
> <i_m_Source_File_Index>
122

> <b_m_subgroup_collapsed>
0

> <s_m_Source_File>
1077.sdf

> <s_m_Source_Path>
C:\Users\hhhx5\OneDrive - University of Missouri\My postDoc working\My metting\19-03-2024\11\create 1077Data

> <s_m_entry_id>
122

> <s_m_entry_name>
1077.122

> <s_m_subgroup_title>
1077

> <s_m_subgroupid>
1077

> <minimizedAffinity>
-1.58004

> <CNNscore>
0.6458883286

> <CNNaffinity>
3.9506309032

> <CNN_VS>
2.5516664982

> <CNNaffinity_variance>
0.3307080865

$$$$
1b8y_IN7


 28 30  0  0  0  0  0  0  0  0999 V2000
    2.4644    4.3851    5.8294 C   0  0  0  0  0  0  0  0  0  0  0  0
    2.4490    3.0846    5.0821 C   0  0  0  0  0  0  0  0  0  0  0  0
    1.1502    2.5165    4.5920 C   0  0  0  0  0  0  0  0  0  0  0  0
   -0.1334    3.2487    4.8493 C   0  0  0  0  0  0  0  0  0  0  0  0
   -0.1180    4.5492    5.5966 C   0  0  0  0  0  0  0  0  0  0  0  0
    1.1808    5.1174    6.0866 C   0  0  0  0  0  0  0  0  0  0  0  0
   -1.4322    2.6806    4.3592 N   0  0  0  0  0  0  0  0  0  0  0  0
   -2.4759    3.5877    3.7781 C   0  0  0  0  0  0  0  0  0  0  0  0
   -3.7748    3.0196    3.2881 C   0  0  0  0  0  0  0  0  0  0  0  0
   -4.0299    1.5443    3.3791 C   0  0  0  0  0  0  0  0  0  0  0  0
   -2.9862    0.6371    3.9602 C   0  0  0  0  0  0  0  0  0  0  0  0
   -1.6874    1.2053    4.4503 C   0  0  0  0  0  0  0  0  0  0  0  0
   -5.3288    0.9761    2.8891 C   0  0  0  0  0  0  0  0  0  0  0  0
   -6.2053    1.7846    1.9791 C   0  0  0  0  0  0  0  0  0  0  0  0
   -7.5042    1.2165    1.4890 C   0  0  0  0  0  0  0  0  0  0  0  0
   -7.9265   -0.1602    1.9089 C   0  0  0  0  0  0  0  0  0  0  0  0
   -7.0501   -0.9687    2.8189 C   0  0  0  0  0  0  0  0  0  0  0  0
   -5.7512   -0.4005    3.3090 C   0  0  0  0  0  0  0  0  0  0  0  0
    3.7632    4.9532    6.3194 S   0  0  0  0  0  0  0  0  0  0  0  0
    3.7886    3.9408    7.4260 O   0  0  0  0  0  0  0  0  0  0  0  0
    3.7379    5.9656    5.2129 O   0  0  0  0  0  0  0  0  0  0  0  0
    5.0621    5.5214    6.8095 N   0  0  0  0  0  0  0  0  0  0  0  0
    5.1840    6.5319    6.8757 H   0  0  0  0  0  0  0  0  0  0  0  0
    6.1816    4.6035    7.2021 C   0  0  0  0  0  0  0  0  0  0  0  0
    8.0119    6.4414    7.0523 O   0  0  0  0  0  0  0  0  0  0  0  0
    7.4922    5.1720    7.6595 C   0  0  0  0  0  0  0  0  0  0  0  0
    8.2831    4.4711    8.7240 O   0  0  0  0  0  0  0  0  0  0  0  0
    9.1018    4.8261    9.0097 H   0  0  0  0  0  0  0  0  0  0  0  0
 25 26  2  0
 26 27  1  0
 26 24  1  0
 24 22  1  0
 22 19  1  0
 19 20  2  0
 19 21  2  0
 19  1  1  0
  1  2  2  0
  1  6  1  0
  2  3  1  0
  3  4  2  0
  4  7  1  0
  4  5  1  0
  7  8  1  0
  7 12  1  0
  8  9  1  0
  9 10  1  0
 10 13  1  0
 10 11  1  0
 13 14  2  0
 13 18  1  0
 14 15  1  0
 15 16  2  0
 16 17  1  0
 17 18  2  0
 11 12  1  0
  5  6  2  0
 27 28  1  0
 22 23  1  0
M  END
> <i_m_Source_File_Index>
122

> <b_m_subgroup_collapsed>
0

> <s_m_Source_File>
1077.sdf

> <s_m_Source_Path>
C:\Users\hhhx5\OneDrive - University of Missouri\My postDoc working\My metting\19-03-2024\11\create 1077Data

> <s_m_entry_id>
122

> <s_m_entry_name>
1077.122

> <s_m_subgroup_title>
1077

> <s_m_subgroupid>
1077

> <minimizedAffinity>
-2.54148

> <CNNscore>
0.6351625323

> <CNNaffinity>
4.0957913399

> <CNN_VS>
2.6014931202

> <CNNaffinity_variance>
0.3034049571

$$$$
1b8y_IN7


 28 30  0  0  0  0  0  0  0  0999 V2000
    2.7315    4.3834    5.4521 C   0  0  0  0  0  0  0  0  0  0  0  0
    2.5608    2.8942    5.3991 C   0  0  0  0  0  0  0  0  0  0  0  0
    1.3533    2.3008    4.7358 C   0  0  0  0  0  0  0  0  0  0  0  0
    0.3166    3.1967    4.1256 C   0  0  0  0  0  0  0  0  0  0  0  0
    0.4873    4.6860    4.1786 C   0  0  0  0  0  0  0  0  0  0  0  0
    1.6948    5.2794    4.8419 C   0  0  0  0  0  0  0  0  0  0  0  0
   -0.8909    2.6034    3.4623 N   0  0  0  0  0  0  0  0  0  0  0  0
   -2.2648    3.0409    3.8759 C   0  0  0  0  0  0  0  0  0  0  0  0
   -3.4723    2.4476    3.2126 C   0  0  0  0  0  0  0  0  0  0  0  0
   -3.3059    1.4167    2.1358 C   0  0  0  0  0  0  0  0  0  0  0  0
   -1.9321    0.9792    1.7223 C   0  0  0  0  0  0  0  0  0  0  0  0
   -0.7246    1.5725    2.3855 C   0  0  0  0  0  0  0  0  0  0  0  0
   -4.5134    0.8233    1.4726 C   0  0  0  0  0  0  0  0  0  0  0  0
   -5.6805    0.3758    2.3016 C   0  0  0  0  0  0  0  0  0  0  0  0
   -6.8880   -0.2176    1.6384 C   0  0  0  0  0  0  0  0  0  0  0  0
   -6.9284   -0.3634    0.1461 C   0  0  0  0  0  0  0  0  0  0  0  0
   -5.7612    0.0842   -0.6830 C   0  0  0  0  0  0  0  0  0  0  0  0
   -4.5537    0.6775   -0.0197 C   0  0  0  0  0  0  0  0  0  0  0  0
    3.9390    4.9768    6.1154 S   0  0  0  0  0  0  0  0  0  0  0  0
    3.0965    5.3790    7.2894 O   0  0  0  0  0  0  0  0  0  0  0  0
    4.7816    4.5745    4.9413 O   0  0  0  0  0  0  0  0  0  0  0  0
    5.1465    5.5701    6.7786 N   0  0  0  0  0  0  0  0  0  0  0  0
    5.3399    6.5675    6.6876 H   0  0  0  0  0  0  0  0  0  0  0  0
    6.0695    4.6968    7.5756 C   0  0  0  0  0  0  0  0  0  0  0  0
    8.0176    6.3642    7.1576 O   0  0  0  0  0  0  0  0  0  0  0  0
    7.4858    5.1272    7.8186 C   0  0  0  0  0  0  0  0  0  0  0  0
    8.3703    4.3204    8.7225 O   0  0  0  0  0  0  0  0  0  0  0  0
    9.2549    4.5893    8.8742 H   0  0  0  0  0  0  0  0  0  0  0  0
 25 26  2  0
 26 27  1  0
 26 24  1  0
 24 22  1  0
 22 19  1  0
 19 20  2  0
 19 21  2  0
 19  1  1  0
  1  2  2  0
  1  6  1  0
  2  3  1  0
  3  4  2  0
  4  7  1  0
  4  5  1  0
  7  8  1  0
  7 12  1  0
  8  9  1  0
  9 10  1  0
 10 13  1  0
 10 11  1  0
 13 14  2  0
 13 18  1  0
 14 15  1  0
 15 16  2  0
 16 17  1  0
 17 18  2  0
 11 12  1  0
  5  6  2  0
 27 28  1  0
 22 23  1  0
M  END
> <i_m_Source_File_Index>
122

> <b_m_subgroup_collapsed>
0

> <s_m_Source_File>
1077.sdf

> <s_m_Source_Path>
C:\Users\hhhx5\OneDrive - University of Missouri\My postDoc working\My metting\19-03-2024\11\create 1077Data

> <s_m_entry_id>
122

> <s_m_entry_name>
1077.122

> <s_m_subgroup_title>
1077

> <s_m_subgroupid>
1077

> <minimizedAffinity>
-2.50704

> <CNNscore>
0.6192979217

> <CNNaffinity>
4.1392726898

> <CNN_VS>
2.5634429455

> <CNNaffinity_variance>
0.3261496127

$$$$
1b8y_IN7


 28 30  0  0  0  0  0  0  0  0999 V2000
    7.6709    6.2380    4.4421 C   0  0  0  0  0  0  0  0  0  0  0  0
    6.7684    5.9959    3.2687 C   0  0  0  0  0  0  0  0  0  0  0  0
    7.2443    6.3046    1.8801 C   0  0  0  0  0  0  0  0  0  0  0  0
    8.6228    6.8553    1.6649 C   0  0  0  0  0  0  0  0  0  0  0  0
    9.5254    7.0974    2.8382 C   0  0  0  0  0  0  0  0  0  0  0  0
    9.0494    6.7887    4.2268 C   0  0  0  0  0  0  0  0  0  0  0  0
    9.0988    7.1639    0.2763 N   0  0  0  0  0  0  0  0  0  0  0  0
   10.2076    6.3581   -0.3330 C   0  0  0  0  0  0  0  0  0  0  0  0
   10.6835    6.6667   -1.7216 C   0  0  0  0  0  0  0  0  0  0  0  0
   10.0507    7.7812   -2.5009 C   0  0  0  0  0  0  0  0  0  0  0  0
    8.9420    8.5870   -1.8917 C   0  0  0  0  0  0  0  0  0  0  0  0
    8.4660    8.2784   -0.5031 C   0  0  0  0  0  0  0  0  0  0  0  0
   10.5267    8.0898   -3.8895 C   0  0  0  0  0  0  0  0  0  0  0  0
   11.1327    9.4276   -4.1946 C   0  0  0  0  0  0  0  0  0  0  0  0
   11.6086    9.7362   -5.5832 C   0  0  0  0  0  0  0  0  0  0  0  0
   11.4787    8.7071   -6.6667 C   0  0  0  0  0  0  0  0  0  0  0  0
   10.8727    7.3693   -6.3616 C   0  0  0  0  0  0  0  0  0  0  0  0
   10.3967    7.0607   -4.9730 C   0  0  0  0  0  0  0  0  0  0  0  0
    7.1949    5.9294    5.8307 S   0  0  0  0  0  0  0  0  0  0  0  0
    6.0430    5.1539    5.2635 O   0  0  0  0  0  0  0  0  0  0  0  0
    8.3468    6.7048    6.3979 O   0  0  0  0  0  0  0  0  0  0  0  0
    6.7189    5.6207    7.2193 N   0  0  0  0  0  0  0  0  0  0  0  0
    5.8598    6.0442    7.5698 H   0  0  0  0  0  0  0  0  0  0  0  0
    7.5065    4.6894    8.0924 C   0  0  0  0  0  0  0  0  0  0  0  0
    7.6421    2.3287    9.1689 O   0  0  0  0  0  0  0  0  0  0  0  0
    7.2741    3.2097    8.0120 C   0  0  0  0  0  0  0  0  0  0  0  0
    6.6737    2.6109    6.7746 O   0  0  0  0  0  0  0  0  0  0  0  0
    6.5286    1.6865    6.7243 H   0  0  0  0  0  0  0  0  0  0  0  0
 25 26  2  0
 26 27  1  0
 26 24  1  0
 24 22  1  0
 22 19  1  0
 19 20  2  0
 19 21  2  0
 19  1  1  0
  1  2  2  0
  1  6  1  0
  2  3  1  0
  3  4  2  0
  4  7  1  0
  4  5  1  0
  7  8  1  0
  7 12  1  0
  8  9  1  0
  9 10  1  0
 10 13  1  0
 10 11  1  0
 13 14  2  0
 13 18  1  0
 14 15  1  0
 15 16  2  0
 16 17  1  0
 17 18  2  0
 11 12  1  0
  5  6  2  0
 27 28  1  0
 22 23  1  0
M  END
> <i_m_Source_File_Index>
122

> <b_m_subgroup_collapsed>
0

> <s_m_Source_File>
1077.sdf

> <s_m_Source_Path>
C:\Users\hhhx5\OneDrive - University of Missouri\My postDoc working\My metting\19-03-2024\11\create 1077Data

> <s_m_entry_id>
122

> <s_m_entry_name>
1077.122

> <s_m_subgroup_title>
1077

> <s_m_subgroupid>
1077

> <minimizedAffinity>
-2.51125

> <CNNscore>
0.5997048616

> <CNNaffinity>
4.1908192635

> <CNN_VS>
2.5132546425

> <CNNaffinity_variance>
0.0862165466

$$$$
1b8y_IN7


 28 30  0  0  0  0  0  0  0  0999 V2000
    3.9903    3.1718    6.4973 C   0  0  0  0  0  0  0  0  0  0  0  0
    2.5320    3.4641    6.3026 C   0  0  0  0  0  0  0  0  0  0  0  0
    1.5947    2.3658    5.8959 C   0  0  0  0  0  0  0  0  0  0  0  0
    2.1158    0.9753    5.6839 C   0  0  0  0  0  0  0  0  0  0  0  0
    3.5741    0.6831    5.8786 C   0  0  0  0  0  0  0  0  0  0  0  0
    4.5113    1.7813    6.2853 C   0  0  0  0  0  0  0  0  0  0  0  0
    1.1785   -0.1229    5.2772 N   0  0  0  0  0  0  0  0  0  0  0  0
    0.5668   -0.1181    3.9076 C   0  0  0  0  0  0  0  0  0  0  0  0
   -0.3704   -1.2163    3.5009 C   0  0  0  0  0  0  0  0  0  0  0  0
   -0.6960   -2.3194    4.4637 C   0  0  0  0  0  0  0  0  0  0  0  0
   -0.0843   -2.3243    5.8333 C   0  0  0  0  0  0  0  0  0  0  0  0
    0.8530   -1.2260    6.2400 C   0  0  0  0  0  0  0  0  0  0  0  0
   -1.6332   -3.4177    4.0570 C   0  0  0  0  0  0  0  0  0  0  0  0
   -2.7846   -3.7880    4.9442 C   0  0  0  0  0  0  0  0  0  0  0  0
   -3.7218   -4.8862    4.5375 C   0  0  0  0  0  0  0  0  0  0  0  0
   -3.5077   -5.6142    3.2436 C   0  0  0  0  0  0  0  0  0  0  0  0
   -2.3564   -5.2438    2.3564 C   0  0  0  0  0  0  0  0  0  0  0  0
   -1.4191   -4.1456    2.7631 C   0  0  0  0  0  0  0  0  0  0  0  0
    4.9275    4.2701    6.9040 S   0  0  0  0  0  0  0  0  0  0  0  0
    3.7570    5.1321    7.2737 O   0  0  0  0  0  0  0  0  0  0  0  0
    6.0981    3.4080    6.5344 O   0  0  0  0  0  0  0  0  0  0  0  0
    5.8648    5.3683    7.3107 N   0  0  0  0  0  0  0  0  0  0  0  0
    5.5224    6.1503    7.8690 H   0  0  0  0  0  0  0  0  0  0  0  0
    7.3055    5.3166    6.8964 C   0  0  0  0  0  0  0  0  0  0  0  0
    9.0853    7.1567    6.4536 O   0  0  0  0  0  0  0  0  0  0  0  0
    7.8718    6.3911    6.0163 C   0  0  0  0  0  0  0  0  0  0  0  0
    7.2246    6.7001    4.6988 O   0  0  0  0  0  0  0  0  0  0  0  0
    7.5784    7.3713    4.1490 H   0  0  0  0  0  0  0  0  0  0  0  0
 25 26  2  0
 26 27  1  0
 26 24  1  0
 24 22  1  0
 22 19  1  0
 19 20  2  0
 19 21  2  0
 19  1  1  0
  1  2  2  0
  1  6  1  0
  2  3  1  0
  3  4  2  0
  4  7  1  0
  4  5  1  0
  7  8  1  0
  7 12  1  0
  8  9  1  0
  9 10  1  0
 10 13  1  0
 10 11  1  0
 13 14  2  0
 13 18  1  0
 14 15  1  0
 15 16  2  0
 16 17  1  0
 17 18  2  0
 11 12  1  0
  5  6  2  0
 27 28  1  0
 22 23  1  0
M  END
> <i_m_Source_File_Index>
122

> <b_m_subgroup_collapsed>
0

> <s_m_Source_File>
1077.sdf

> <s_m_Source_Path>
C:\Users\hhhx5\OneDrive - University of Missouri\My postDoc working\My metting\19-03-2024\11\create 1077Data

> <s_m_entry_id>
122

> <s_m_entry_name>
1077.122

> <s_m_subgroup_title>
1077

> <s_m_subgroupid>
1077

> <minimizedAffinity>
-2.35489

> <CNNscore>
0.5946179628

> <CNNaffinity>
4.4828262329

> <CNN_VS>
2.6655690670

> <CNNaffinity_variance>
0.4874929488

$$$$
1b8y_IN7


 28 30  0  0  0  0  0  0  0  0999 V2000
    5.6969    4.3686    6.9460 C   0  0  0  0  0  0  0  0  0  0  0  0
    4.3340    4.7284    6.4331 C   0  0  0  0  0  0  0  0  0  0  0  0
    3.1834    3.7881    6.6376 C   0  0  0  0  0  0  0  0  0  0  0  0
    3.3955    2.4880    7.3549 C   0  0  0  0  0  0  0  0  0  0  0  0
    4.7584    2.1282    7.8678 C   0  0  0  0  0  0  0  0  0  0  0  0
    5.9091    3.0685    7.6633 C   0  0  0  0  0  0  0  0  0  0  0  0
    2.2449    1.5477    7.5593 N   0  0  0  0  0  0  0  0  0  0  0  0
    2.3811    0.3897    8.5030 C   0  0  0  0  0  0  0  0  0  0  0  0
    1.2304   -0.5505    8.7074 C   0  0  0  0  0  0  0  0  0  0  0  0
   -0.0565   -0.3329    7.9683 C   0  0  0  0  0  0  0  0  0  0  0  0
   -0.1927    0.8251    7.0246 C   0  0  0  0  0  0  0  0  0  0  0  0
    0.9580    1.7654    6.8202 C   0  0  0  0  0  0  0  0  0  0  0  0
   -1.2072   -1.2732    8.1727 C   0  0  0  0  0  0  0  0  0  0  0  0
   -1.0199   -2.5232    8.9804 C   0  0  0  0  0  0  0  0  0  0  0  0
   -2.1706   -3.4634    9.1849 C   0  0  0  0  0  0  0  0  0  0  0  0
   -3.5085   -3.1537    8.5816 C   0  0  0  0  0  0  0  0  0  0  0  0
   -3.6958   -1.9037    7.7740 C   0  0  0  0  0  0  0  0  0  0  0  0
   -2.5451   -0.9634    7.5695 C   0  0  0  0  0  0  0  0  0  0  0  0
    6.8476    5.3089    6.7415 S   0  0  0  0  0  0  0  0  0  0  0  0
    6.1927    5.8406    5.5012 O   0  0  0  0  0  0  0  0  0  0  0  0
    7.5025    4.7771    7.9818 O   0  0  0  0  0  0  0  0  0  0  0  0
    7.9982    6.2492    6.5371 N   0  0  0  0  0  0  0  0  0  0  0  0
    8.3938    6.7514    7.3318 H   0  0  0  0  0  0  0  0  0  0  0  0
    8.5671    6.4508    5.1639 C   0  0  0  0  0  0  0  0  0  0  0  0
   10.3783    7.4801    3.6114 O   0  0  0  0  0  0  0  0  0  0  0  0
    9.7467    7.3561    4.9663 C   0  0  0  0  0  0  0  0  0  0  0  0
   10.2946    8.1375    6.1236 O   0  0  0  0  0  0  0  0  0  0  0  0
   11.0314    8.7031    6.0001 H   0  0  0  0  0  0  0  0  0  0  0  0
 25 26  2  0
 26 27  1  0
 26 24  1  0
 24 22  1  0
 22 19  1  0
 19 20  2  0
 19 21  2  0
 19  1  1  0
  1  2  2  0
  1  6  1  0
  2  3  1  0
  3  4  2  0
  4  7  1  0
  4  5  1  0
  7  8  1  0
  7 12  1  0
  8  9  1  0
  9 10  1  0
 10 13  1  0
 10 11  1  0
 13 14  2  0
 13 18  1  0
 14 15  1  0
 15 16  2  0
 16 17  1  0
 17 18  2  0
 11 12  1  0
  5  6  2  0
 27 28  1  0
 22 23  1  0
M  END
> <i_m_Source_File_Index>
122

> <b_m_subgroup_collapsed>
0

> <s_m_Source_File>
1077.sdf

> <s_m_Source_Path>
C:\Users\hhhx5\OneDrive - University of Missouri\My postDoc working\My metting\19-03-2024\11\create 1077Data

> <s_m_entry_id>
122

> <s_m_entry_name>
1077.122

> <s_m_subgroup_title>
1077

> <s_m_subgroupid>
1077

> <minimizedAffinity>
-3.70557

> <CNNscore>
0.5897923112

> <CNNaffinity>
4.3922362328

> <CNN_VS>
2.5905072689

> <CNNaffinity_variance>
0.0006916052

$$$$
