1bju_GP6


 25 26  0  0  0  0  0  0  0  0999 V2000
   -7.1667    3.5360    2.7369 N   0  0  0  0  0  0  0  0  0  0  0  0
   -5.7413    3.9817    2.8765 C   0  0  0  0  0  0  0  0  0  0  0  0
   -5.4170    5.2277    3.6461 O   0  0  0  0  0  0  0  0  0  0  0  0
   -4.6402    3.1814    2.2463 N   0  0  0  0  0  0  0  0  0  0  0  0
   -7.3796    2.7182    2.2318 H   0  0  0  0  0  0  0  0  0  0  0  0
   -4.8530    2.3636    1.7412 H   0  0  0  0  0  0  0  0  0  0  0  0
   -3.2147    3.6272    2.3859 C   0  0  0  0  0  0  0  0  0  0  0  0
   -2.4387    3.2824    3.6223 C   0  0  0  0  0  0  0  0  0  0  0  0
   -1.0132    3.7282    3.7619 C   0  0  0  0  0  0  0  0  0  0  0  0
   -0.3638    4.5187    2.6649 C   0  0  0  0  0  0  0  0  0  0  0  0
    1.0616    4.9645    2.8044 Cl  0  0  0  0  0  0  0  0  0  0  0  0
   -1.1399    4.8635    1.4284 C   0  0  0  0  0  0  0  0  0  0  0  0
   -2.5653    4.4178    1.2889 C   0  0  0  0  0  0  0  0  0  0  0  0
  -10.4702    5.9368    4.6273 C   0  0  0  0  0  0  0  0  0  0  0  0
  -10.5858    5.4976    3.1977 C   0  0  0  0  0  0  0  0  0  0  0  0
   -9.4846    4.6973    2.5676 C   0  0  0  0  0  0  0  0  0  0  0  0
   -8.2679    4.3363    3.3671 C   0  0  0  0  0  0  0  0  0  0  0  0
   -8.1523    4.7755    4.7966 C   0  0  0  0  0  0  0  0  0  0  0  0
   -9.2534    5.5758    5.4267 C   0  0  0  0  0  0  0  0  0  0  0  0
  -12.3736    6.1532    6.3823 N   0  0  0  0  0  0  0  0  0  0  0  0
  -11.5713    6.7371    5.2574 C   0  0  0  0  0  0  0  0  0  0  0  0
  -11.8701    8.1212    4.7627 N   0  0  0  0  0  0  0  0  0  0  0  0
  -13.0963    6.6785    6.7958 H   0  0  0  0  0  0  0  0  0  0  0  0
  -11.3436    8.5044    4.0244 H   0  0  0  0  0  0  0  0  0  0  0  0
  -12.5929    8.6464    5.1762 H   0  0  0  0  0  0  0  0  0  0  0  0
 20 21  2  0
 21 22  1  0
 21 14  1  0
 14 15  2  0
 14 19  1  0
 15 16  1  0
 16 17  2  0
 17  1  1  0
 17 18  1  0
  1  2  1  0
  2  3  2  0
  2  4  1  0
  4  7  1  0
  7  8  2  0
  7 13  1  0
  8  9  1  0
  9 10  2  0
 10 11  1  0
 10 12  1  0
 12 13  2  0
 18 19  2  0
 20 23  1  0
 22 24  1  0
 22 25  1  0
  1  5  1  0
  4  6  1  0
M  END
> <i_m_Source_File_Index>
1014

> <b_m_subgroup_collapsed>
0

> <s_m_Source_File>
1077.sdf

> <s_m_Source_Path>
C:\Users\hhhx5\OneDrive - University of Missouri\My postDoc working\My metting\19-03-2024\11\create 1077Data

> <s_m_entry_id>
1014

> <s_m_entry_name>
1077.1014

> <s_m_subgroup_title>
1077

> <s_m_subgroupid>
1077

> <minimizedAffinity>
-4.39009

> <CNNscore>
0.3935811818

> <CNNaffinity>
3.3942654133

> <CNN_VS>
1.3359190226

> <CNNaffinity_variance>
1.0230969191

$$$$
1bju_GP6


 25 26  0  0  0  0  0  0  0  0999 V2000
   -4.6892    4.1060    0.3133 N   0  0  0  0  0  0  0  0  0  0  0  0
   -3.4799    4.9884    0.2189 C   0  0  0  0  0  0  0  0  0  0  0  0
   -3.2213    6.0219    1.2749 O   0  0  0  0  0  0  0  0  0  0  0  0
   -2.5293    4.8374   -0.9315 N   0  0  0  0  0  0  0  0  0  0  0  0
   -4.8589    3.4277   -0.3797 H   0  0  0  0  0  0  0  0  0  0  0  0
   -2.6990    4.1591   -1.6246 H   0  0  0  0  0  0  0  0  0  0  0  0
   -1.3199    5.7199   -1.0259 C   0  0  0  0  0  0  0  0  0  0  0  0
    0.0076    5.2286   -0.5298 C   0  0  0  0  0  0  0  0  0  0  0  0
    1.2169    6.1111   -0.6242 C   0  0  0  0  0  0  0  0  0  0  0  0
    1.0986    7.4849   -1.2147 C   0  0  0  0  0  0  0  0  0  0  0  0
    2.3078    8.3674   -1.3091 Cl  0  0  0  0  0  0  0  0  0  0  0  0
   -0.2290    7.9762   -1.7109 C   0  0  0  0  0  0  0  0  0  0  0  0
   -1.4383    7.0937   -1.6165 C   0  0  0  0  0  0  0  0  0  0  0  0
   -7.5412    4.5591    3.7645 C   0  0  0  0  0  0  0  0  0  0  0  0
   -6.1097    4.9813    3.9141 C   0  0  0  0  0  0  0  0  0  0  0  0
   -5.1590    4.8303    2.7637 C   0  0  0  0  0  0  0  0  0  0  0  0
   -5.6399    4.2570    1.4637 C   0  0  0  0  0  0  0  0  0  0  0  0
   -7.0714    3.8348    1.3141 C   0  0  0  0  0  0  0  0  0  0  0  0
   -8.0221    3.9858    2.4645 C   0  0  0  0  0  0  0  0  0  0  0  0
   -8.8146    6.0749    5.4470 N   0  0  0  0  0  0  0  0  0  0  0  0
   -8.4919    4.7101    4.9149 C   0  0  0  0  0  0  0  0  0  0  0  0
   -9.1199    3.4963    5.5332 N   0  0  0  0  0  0  0  0  0  0  0  0
   -9.4385    6.1740    6.2021 H   0  0  0  0  0  0  0  0  0  0  0  0
   -8.9082    2.6005    5.1839 H   0  0  0  0  0  0  0  0  0  0  0  0
   -9.7439    3.5955    6.2882 H   0  0  0  0  0  0  0  0  0  0  0  0
 20 21  2  0
 21 22  1  0
 21 14  1  0
 14 15  2  0
 14 19  1  0
 15 16  1  0
 16 17  2  0
 17  1  1  0
 17 18  1  0
  1  2  1  0
  2  3  2  0
  2  4  1  0
  4  7  1  0
  7  8  2  0
  7 13  1  0
  8  9  1  0
  9 10  2  0
 10 11  1  0
 10 12  1  0
 12 13  2  0
 18 19  2  0
 20 23  1  0
 22 24  1  0
 22 25  1  0
  1  5  1  0
  4  6  1  0
M  END
> <i_m_Source_File_Index>
1014

> <b_m_subgroup_collapsed>
0

> <s_m_Source_File>
1077.sdf

> <s_m_Source_Path>
C:\Users\hhhx5\OneDrive - University of Missouri\My postDoc working\My metting\19-03-2024\11\create 1077Data

> <s_m_entry_id>
1014

> <s_m_entry_name>
1077.1014

> <s_m_subgroup_title>
1077

> <s_m_subgroupid>
1077

> <minimizedAffinity>
-3.66541

> <CNNscore>
0.3518947959

> <CNNaffinity>
3.7622215748

> <CNN_VS>
1.3239061832

> <CNNaffinity_variance>
0.1003183797

$$$$
1bju_GP6


 25 26  0  0  0  0  0  0  0  0999 V2000
   -5.4517    2.5757    2.5584 N   0  0  0  0  0  0  0  0  0  0  0  0
   -4.0365    2.6842    3.0435 C   0  0  0  0  0  0  0  0  0  0  0  0
   -3.7509    3.2485    4.4037 O   0  0  0  0  0  0  0  0  0  0  0  0
   -2.9067    2.2284    2.1684 N   0  0  0  0  0  0  0  0  0  0  0  0
   -5.6390    2.2053    1.6657 H   0  0  0  0  0  0  0  0  0  0  0  0
   -3.0940    1.8580    1.2756 H   0  0  0  0  0  0  0  0  0  0  0  0
   -1.4914    2.3369    2.6535 C   0  0  0  0  0  0  0  0  0  0  0  0
   -0.8911    1.2302    3.4688 C   0  0  0  0  0  0  0  0  0  0  0  0
    0.5242    1.3387    3.9539 C   0  0  0  0  0  0  0  0  0  0  0  0
    1.3391    2.5540    3.6236 C   0  0  0  0  0  0  0  0  0  0  0  0
    2.7544    2.6625    4.1087 Cl  0  0  0  0  0  0  0  0  0  0  0  0
    0.7388    3.6607    2.8082 C   0  0  0  0  0  0  0  0  0  0  0  0
   -0.6765    3.5521    2.3231 C   0  0  0  0  0  0  0  0  0  0  0  0
   -8.8410    3.9431    5.1838 C   0  0  0  0  0  0  0  0  0  0  0  0
   -7.9788    4.9525    4.4856 C   0  0  0  0  0  0  0  0  0  0  0  0
   -6.8491    4.4967    3.6104 C   0  0  0  0  0  0  0  0  0  0  0  0
   -6.5815    3.0315    3.4335 C   0  0  0  0  0  0  0  0  0  0  0  0
   -7.4437    2.0220    4.1317 C   0  0  0  0  0  0  0  0  0  0  0  0
   -8.5735    2.4778    5.0068 C   0  0  0  0  0  0  0  0  0  0  0  0
  -10.8526    3.3892    6.7319 N   0  0  0  0  0  0  0  0  0  0  0  0
   -9.9708    4.3989    6.0589 C   0  0  0  0  0  0  0  0  0  0  0  0
  -10.2188    5.8643    6.2610 N   0  0  0  0  0  0  0  0  0  0  0  0
  -11.5942    3.6884    7.3062 H   0  0  0  0  0  0  0  0  0  0  0  0
   -9.6401    6.5270    5.8193 H   0  0  0  0  0  0  0  0  0  0  0  0
  -10.9603    6.1635    6.8353 H   0  0  0  0  0  0  0  0  0  0  0  0
 20 21  2  0
 21 22  1  0
 21 14  1  0
 14 15  2  0
 14 19  1  0
 15 16  1  0
 16 17  2  0
 17  1  1  0
 17 18  1  0
  1  2  1  0
  2  3  2  0
  2  4  1  0
  4  7  1  0
  7  8  2  0
  7 13  1  0
  8  9  1  0
  9 10  2  0
 10 11  1  0
 10 12  1  0
 12 13  2  0
 18 19  2  0
 20 23  1  0
 22 24  1  0
 22 25  1  0
  1  5  1  0
  4  6  1  0
M  END
> <i_m_Source_File_Index>
1014

> <b_m_subgroup_collapsed>
0

> <s_m_Source_File>
1077.sdf

> <s_m_Source_Path>
C:\Users\hhhx5\OneDrive - University of Missouri\My postDoc working\My metting\19-03-2024\11\create 1077Data

> <s_m_entry_id>
1014

> <s_m_entry_name>
1077.1014

> <s_m_subgroup_title>
1077

> <s_m_subgroupid>
1077

> <minimizedAffinity>
-4.49323

> <CNNscore>
0.3005708456

> <CNNaffinity>
3.8281867504

> <CNN_VS>
1.1506413221

> <CNNaffinity_variance>
0.4682232141

$$$$
1bju_GP6


 25 26  0  0  0  0  0  0  0  0999 V2000
   -3.8305    5.4578    2.2229 N   0  0  0  0  0  0  0  0  0  0  0  0
   -2.5485    4.6877    2.3385 C   0  0  0  0  0  0  0  0  0  0  0  0
   -2.2585    3.5664    1.3852 O   0  0  0  0  0  0  0  0  0  0  0  0
   -1.5565    5.0388    3.4075 N   0  0  0  0  0  0  0  0  0  0  0  0
   -4.0208    6.1937    2.8485 H   0  0  0  0  0  0  0  0  0  0  0  0
   -1.7468    5.7746    4.0331 H   0  0  0  0  0  0  0  0  0  0  0  0
   -0.2745    4.2686    3.5231 C   0  0  0  0  0  0  0  0  0  0  0  0
   -0.2639    2.9259    4.1917 C   0  0  0  0  0  0  0  0  0  0  0  0
    1.0182    2.1557    4.3073 C   0  0  0  0  0  0  0  0  0  0  0  0
    2.2895    2.7283    3.7543 C   0  0  0  0  0  0  0  0  0  0  0  0
    3.5715    1.9582    3.8699 Cl  0  0  0  0  0  0  0  0  0  0  0  0
    2.2789    4.0710    3.0857 C   0  0  0  0  0  0  0  0  0  0  0  0
    0.9969    4.8411    2.9701 C   0  0  0  0  0  0  0  0  0  0  0  0
   -6.8066    4.4046   -0.9840 C   0  0  0  0  0  0  0  0  0  0  0  0
   -5.6206    5.2617   -1.3137 C   0  0  0  0  0  0  0  0  0  0  0  0
   -4.6286    5.6127   -0.2447 C   0  0  0  0  0  0  0  0  0  0  0  0
   -4.8225    5.1067    1.1539 C   0  0  0  0  0  0  0  0  0  0  0  0
   -6.0085    4.2496    1.4836 C   0  0  0  0  0  0  0  0  0  0  0  0
   -7.0005    3.8985    0.4147 C   0  0  0  0  0  0  0  0  0  0  0  0
   -7.7206    2.7228   -2.7407 N   0  0  0  0  0  0  0  0  0  0  0  0
   -7.7986    4.0535   -2.0529 C   0  0  0  0  0  0  0  0  0  0  0  0
   -8.8686    5.0331   -2.4341 N   0  0  0  0  0  0  0  0  0  0  0  0
   -8.3717    2.4924   -3.4423 H   0  0  0  0  0  0  0  0  0  0  0  0
   -8.9198    5.9065   -1.9827 H   0  0  0  0  0  0  0  0  0  0  0  0
   -9.5197    4.8027   -3.1357 H   0  0  0  0  0  0  0  0  0  0  0  0
 20 21  2  0
 21 22  1  0
 21 14  1  0
 14 15  2  0
 14 19  1  0
 15 16  1  0
 16 17  2  0
 17  1  1  0
 17 18  1  0
  1  2  1  0
  2  3  2  0
  2  4  1  0
  4  7  1  0
  7  8  2  0
  7 13  1  0
  8  9  1  0
  9 10  2  0
 10 11  1  0
 10 12  1  0
 12 13  2  0
 18 19  2  0
 20 23  1  0
 22 24  1  0
 22 25  1  0
  1  5  1  0
  4  6  1  0
M  END
> <i_m_Source_File_Index>
1014

> <b_m_subgroup_collapsed>
0

> <s_m_Source_File>
1077.sdf

> <s_m_Source_Path>
C:\Users\hhhx5\OneDrive - University of Missouri\My postDoc working\My metting\19-03-2024\11\create 1077Data

> <s_m_entry_id>
1014

> <s_m_entry_name>
1077.1014

> <s_m_subgroup_title>
1077

> <s_m_subgroupid>
1077

> <minimizedAffinity>
-4.09496

> <CNNscore>
0.2858764529

> <CNNaffinity>
3.9080991745

> <CNN_VS>
1.1172335148

> <CNNaffinity_variance>
0.2031728625

$$$$
1bju_GP6


 25 26  0  0  0  0  0  0  0  0999 V2000
   -4.3839    2.2096    2.7308 N   0  0  0  0  0  0  0  0  0  0  0  0
   -5.4928    3.1541    3.0888 C   0  0  0  0  0  0  0  0  0  0  0  0
   -5.1729    4.5370    3.5738 O   0  0  0  0  0  0  0  0  0  0  0  0
   -6.9217    2.7156    2.9619 N   0  0  0  0  0  0  0  0  0  0  0  0
   -4.5938    1.3020    2.4125 H   0  0  0  0  0  0  0  0  0  0  0  0
   -7.1316    1.8080    2.6436 H   0  0  0  0  0  0  0  0  0  0  0  0
   -8.0307    3.6601    3.3199 C   0  0  0  0  0  0  0  0  0  0  0  0
   -8.9819    4.1354    2.2620 C   0  0  0  0  0  0  0  0  0  0  0  0
  -10.0909    5.0799    2.6201 C   0  0  0  0  0  0  0  0  0  0  0  0
  -10.2486    5.5491    4.0361 C   0  0  0  0  0  0  0  0  0  0  0  0
  -11.3575    6.4936    4.3941 Cl  0  0  0  0  0  0  0  0  0  0  0  0
   -9.2973    5.0737    5.0940 C   0  0  0  0  0  0  0  0  0  0  0  0
   -8.1883    4.1293    4.7359 C   0  0  0  0  0  0  0  0  0  0  0  0
   -0.0973    3.5250    3.1116 C   0  0  0  0  0  0  0  0  0  0  0  0
   -0.9048    3.9367    1.9165 C   0  0  0  0  0  0  0  0  0  0  0  0
   -2.3336    3.4982    1.7895 C   0  0  0  0  0  0  0  0  0  0  0  0
   -2.9550    2.6481    2.8577 C   0  0  0  0  0  0  0  0  0  0  0  0
   -2.1475    2.2365    4.0529 C   0  0  0  0  0  0  0  0  0  0  0  0
   -0.7187    2.6749    4.1798 C   0  0  0  0  0  0  0  0  0  0  0  0
    2.3424    3.0526    3.8698 N   0  0  0  0  0  0  0  0  0  0  0  0
    1.3316    3.9635    3.2386 C   0  0  0  0  0  0  0  0  0  0  0  0
    1.7497    5.3129    2.7343 N   0  0  0  0  0  0  0  0  0  0  0  0
    3.2802    3.3404    3.9531 H   0  0  0  0  0  0  0  0  0  0  0  0
    1.0862    5.9107    2.3199 H   0  0  0  0  0  0  0  0  0  0  0  0
    2.6875    5.6006    2.8176 H   0  0  0  0  0  0  0  0  0  0  0  0
 20 21  2  0
 21 22  1  0
 21 14  1  0
 14 15  2  0
 14 19  1  0
 15 16  1  0
 16 17  2  0
 17  1  1  0
 17 18  1  0
  1  2  1  0
  2  3  2  0
  2  4  1  0
  4  7  1  0
  7  8  2  0
  7 13  1  0
  8  9  1  0
  9 10  2  0
 10 11  1  0
 10 12  1  0
 12 13  2  0
 18 19  2  0
 20 23  1  0
 22 24  1  0
 22 25  1  0
  1  5  1  0
  4  6  1  0
M  END
> <i_m_Source_File_Index>
1014

> <b_m_subgroup_collapsed>
0

> <s_m_Source_File>
1077.sdf

> <s_m_Source_Path>
C:\Users\hhhx5\OneDrive - University of Missouri\My postDoc working\My metting\19-03-2024\11\create 1077Data

> <s_m_entry_id>
1014

> <s_m_entry_name>
1077.1014

> <s_m_subgroup_title>
1077

> <s_m_subgroupid>
1077

> <minimizedAffinity>
-4.47435

> <CNNscore>
0.2675215900

> <CNNaffinity>
3.5983133316

> <CNN_VS>
0.9626265168

> <CNNaffinity_variance>
0.6288496852

$$$$
1bju_GP6


 25 26  0  0  0  0  0  0  0  0999 V2000
   -2.8940    1.0413    4.6156 N   0  0  0  0  0  0  0  0  0  0  0  0
   -1.5274    1.2586    4.0368 C   0  0  0  0  0  0  0  0  0  0  0  0
   -1.3424    2.1992    2.8830 O   0  0  0  0  0  0  0  0  0  0  0  0
   -0.3457    0.5355    4.6118 N   0  0  0  0  0  0  0  0  0  0  0  0
   -3.0154    0.4240    5.3729 H   0  0  0  0  0  0  0  0  0  0  0  0
   -0.4670   -0.0818    5.3691 H   0  0  0  0  0  0  0  0  0  0  0  0
    1.0210    0.7529    4.0330 C   0  0  0  0  0  0  0  0  0  0  0  0
    1.5933   -0.2418    3.0671 C   0  0  0  0  0  0  0  0  0  0  0  0
    2.9600   -0.0244    2.4883 C   0  0  0  0  0  0  0  0  0  0  0  0
    3.7544    1.1877    2.8754 C   0  0  0  0  0  0  0  0  0  0  0  0
    5.1210    1.4051    2.2967 Cl  0  0  0  0  0  0  0  0  0  0  0  0
    3.1820    2.1824    3.8414 C   0  0  0  0  0  0  0  0  0  0  0  0
    1.8154    1.9650    4.4202 C   0  0  0  0  0  0  0  0  0  0  0  0
   -6.4391    3.2107    2.8906 C   0  0  0  0  0  0  0  0  0  0  0  0
   -6.4454    1.7133    2.9767 C   0  0  0  0  0  0  0  0  0  0  0  0
   -5.2637    0.9901    3.5517 C   0  0  0  0  0  0  0  0  0  0  0  0
   -4.0757    1.7644    4.0406 C   0  0  0  0  0  0  0  0  0  0  0  0
   -4.0694    3.2619    3.9545 C   0  0  0  0  0  0  0  0  0  0  0  0
   -5.2511    3.9851    3.3795 C   0  0  0  0  0  0  0  0  0  0  0  0
   -7.7463    4.1038    0.8306 N   0  0  0  0  0  0  0  0  0  0  0  0
   -7.6208    3.9339    2.3156 C   0  0  0  0  0  0  0  0  0  0  0  0
   -8.6771    4.4871    3.2256 N   0  0  0  0  0  0  0  0  0  0  0  0
   -8.5219    4.5785    0.4532 H   0  0  0  0  0  0  0  0  0  0  0  0
   -8.5948    4.3756    4.2003 H   0  0  0  0  0  0  0  0  0  0  0  0
   -9.4527    4.9618    2.8482 H   0  0  0  0  0  0  0  0  0  0  0  0
 20 21  2  0
 21 22  1  0
 21 14  1  0
 14 15  2  0
 14 19  1  0
 15 16  1  0
 16 17  2  0
 17  1  1  0
 17 18  1  0
  1  2  1  0
  2  3  2  0
  2  4  1  0
  4  7  1  0
  7  8  2  0
  7 13  1  0
  8  9  1  0
  9 10  2  0
 10 11  1  0
 10 12  1  0
 12 13  2  0
 18 19  2  0
 20 23  1  0
 22 24  1  0
 22 25  1  0
  1  5  1  0
  4  6  1  0
M  END
> <i_m_Source_File_Index>
1014

> <b_m_subgroup_collapsed>
0

> <s_m_Source_File>
1077.sdf

> <s_m_Source_Path>
C:\Users\hhhx5\OneDrive - University of Missouri\My postDoc working\My metting\19-03-2024\11\create 1077Data

> <s_m_entry_id>
1014

> <s_m_entry_name>
1077.1014

> <s_m_subgroup_title>
1077

> <s_m_subgroupid>
1077

> <minimizedAffinity>
-3.92690

> <CNNscore>
0.2596431971

> <CNNaffinity>
3.5934009552

> <CNN_VS>
0.9330021143

> <CNNaffinity_variance>
0.4628606737

$$$$
1bju_GP6


 25 26  0  0  0  0  0  0  0  0999 V2000
   -5.7083    2.8574    2.5980 N   0  0  0  0  0  0  0  0  0  0  0  0
   -4.2773    3.1228    2.9610 C   0  0  0  0  0  0  0  0  0  0  0  0
   -3.9424    3.7479    4.2829 O   0  0  0  0  0  0  0  0  0  0  0  0
   -3.1812    2.7632    2.0023 N   0  0  0  0  0  0  0  0  0  0  0  0
   -5.9281    2.4472    1.7304 H   0  0  0  0  0  0  0  0  0  0  0  0
   -3.4010    2.3529    1.1347 H   0  0  0  0  0  0  0  0  0  0  0  0
   -1.7502    3.0286    2.3654 C   0  0  0  0  0  0  0  0  0  0  0  0
   -1.1604    4.3899    2.1444 C   0  0  0  0  0  0  0  0  0  0  0  0
    0.2706    4.6553    2.5075 C   0  0  0  0  0  0  0  0  0  0  0  0
    1.1118    3.5593    3.0916 C   0  0  0  0  0  0  0  0  0  0  0  0
    2.5428    3.8247    3.4547 Cl  0  0  0  0  0  0  0  0  0  0  0  0
    0.5220    2.1979    3.3126 C   0  0  0  0  0  0  0  0  0  0  0  0
   -0.9089    1.9326    2.9495 C   0  0  0  0  0  0  0  0  0  0  0  0
   -8.9966    3.9364    5.4742 C   0  0  0  0  0  0  0  0  0  0  0  0
   -8.2379    5.0172    4.7628 C   0  0  0  0  0  0  0  0  0  0  0  0
   -7.1418    4.6575    3.8040 C   0  0  0  0  0  0  0  0  0  0  0  0
   -6.8044    3.2171    3.5567 C   0  0  0  0  0  0  0  0  0  0  0  0
   -7.5631    2.1363    4.2681 C   0  0  0  0  0  0  0  0  0  0  0  0
   -8.6592    2.4959    5.2269 C   0  0  0  0  0  0  0  0  0  0  0  0
  -10.8500    3.2153    7.1460 N   0  0  0  0  0  0  0  0  0  0  0  0
  -10.0927    4.2960    6.4329 C   0  0  0  0  0  0  0  0  0  0  0  0
  -10.4316    5.7364    6.6786 N   0  0  0  0  0  0  0  0  0  0  0  0
  -11.5694    3.4513    7.7752 H   0  0  0  0  0  0  0  0  0  0  0  0
   -9.9346    6.4458    6.2106 H   0  0  0  0  0  0  0  0  0  0  0  0
  -11.1510    5.9724    7.3079 H   0  0  0  0  0  0  0  0  0  0  0  0
 20 21  2  0
 21 22  1  0
 21 14  1  0
 14 15  2  0
 14 19  1  0
 15 16  1  0
 16 17  2  0
 17  1  1  0
 17 18  1  0
  1  2  1  0
  2  3  2  0
  2  4  1  0
  4  7  1  0
  7  8  2  0
  7 13  1  0
  8  9  1  0
  9 10  2  0
 10 11  1  0
 10 12  1  0
 12 13  2  0
 18 19  2  0
 20 23  1  0
 22 24  1  0
 22 25  1  0
  1  5  1  0
  4  6  1  0
M  END
> <i_m_Source_File_Index>
1014

> <b_m_subgroup_collapsed>
0

> <s_m_Source_File>
1077.sdf

> <s_m_Source_Path>
C:\Users\hhhx5\OneDrive - University of Missouri\My postDoc working\My metting\19-03-2024\11\create 1077Data

> <s_m_entry_id>
1014

> <s_m_entry_name>
1077.1014

> <s_m_subgroup_title>
1077

> <s_m_subgroupid>
1077

> <minimizedAffinity>
-4.71434

> <CNNscore>
0.2556697130

> <CNNaffinity>
3.6069476604

> <CNN_VS>
0.9221872687

> <CNNaffinity_variance>
0.7870688438

$$$$
1bju_GP6


 25 26  0  0  0  0  0  0  0  0999 V2000
   -2.2146    5.2493    2.5072 N   0  0  0  0  0  0  0  0  0  0  0  0
   -1.0680    4.2858    2.4235 C   0  0  0  0  0  0  0  0  0  0  0  0
   -0.8915    3.4343    1.2012 O   0  0  0  0  0  0  0  0  0  0  0  0
   -0.0979    4.1737    3.5621 N   0  0  0  0  0  0  0  0  0  0  0  0
   -2.3304    5.8081    3.3094 H   0  0  0  0  0  0  0  0  0  0  0  0
   -0.2137    4.7326    4.3643 H   0  0  0  0  0  0  0  0  0  0  0  0
    1.0487    3.2102    3.4784 C   0  0  0  0  0  0  0  0  0  0  0  0
    2.3677    3.6604    2.9239 C   0  0  0  0  0  0  0  0  0  0  0  0
    3.5143    2.6968    2.8401 C   0  0  0  0  0  0  0  0  0  0  0  0
    3.3418    1.2831    3.3110 C   0  0  0  0  0  0  0  0  0  0  0  0
    4.4883    0.3195    3.2273 Cl  0  0  0  0  0  0  0  0  0  0  0  0
    2.0227    0.8329    3.8655 C   0  0  0  0  0  0  0  0  0  0  0  0
    0.8762    1.7965    3.9492 C   0  0  0  0  0  0  0  0  0  0  0  0
   -5.1249    5.5855   -0.9085 C   0  0  0  0  0  0  0  0  0  0  0  0
   -3.8000    6.2850   -0.9805 C   0  0  0  0  0  0  0  0  0  0  0  0
   -2.8299    6.1729    0.1581 C   0  0  0  0  0  0  0  0  0  0  0  0
   -3.1847    5.3614    1.3686 C   0  0  0  0  0  0  0  0  0  0  0  0
   -4.5096    4.6619    1.4406 C   0  0  0  0  0  0  0  0  0  0  0  0
   -5.4797    4.7739    0.3020 C   0  0  0  0  0  0  0  0  0  0  0  0
   -6.7256    4.4628   -2.6194 N   0  0  0  0  0  0  0  0  0  0  0  0
   -6.0950    5.6975   -2.0471 C   0  0  0  0  0  0  0  0  0  0  0  0
   -6.4345    7.0444   -2.6133 N   0  0  0  0  0  0  0  0  0  0  0  0
   -7.3624    4.5363   -3.3667 H   0  0  0  0  0  0  0  0  0  0  0  0
   -6.0206    7.8549   -2.2377 H   0  0  0  0  0  0  0  0  0  0  0  0
   -7.0712    7.1179   -3.3606 H   0  0  0  0  0  0  0  0  0  0  0  0
 20 21  2  0
 21 22  1  0
 21 14  1  0
 14 15  2  0
 14 19  1  0
 15 16  1  0
 16 17  2  0
 17  1  1  0
 17 18  1  0
  1  2  1  0
  2  3  2  0
  2  4  1  0
  4  7  1  0
  7  8  2  0
  7 13  1  0
  8  9  1  0
  9 10  2  0
 10 11  1  0
 10 12  1  0
 12 13  2  0
 18 19  2  0
 20 23  1  0
 22 24  1  0
 22 25  1  0
  1  5  1  0
  4  6  1  0
M  END
> <i_m_Source_File_Index>
1014

> <b_m_subgroup_collapsed>
0

> <s_m_Source_File>
1077.sdf

> <s_m_Source_Path>
C:\Users\hhhx5\OneDrive - University of Missouri\My postDoc working\My metting\19-03-2024\11\create 1077Data

> <s_m_entry_id>
1014

> <s_m_entry_name>
1077.1014

> <s_m_subgroup_title>
1077

> <s_m_subgroupid>
1077

> <minimizedAffinity>
-3.99718

> <CNNscore>
0.2516043484

> <CNNaffinity>
4.0495872498

> <CNN_VS>
1.0188937187

> <CNNaffinity_variance>
0.2148861438

$$$$
1bju_GP6


 25 26  0  0  0  0  0  0  0  0999 V2000
    2.2736    4.0976    2.3998 N   0  0  0  0  0  0  0  0  0  0  0  0
    0.9653    3.3999    2.6269 C   0  0  0  0  0  0  0  0  0  0  0  0
    0.0359    3.1553    1.4752 O   0  0  0  0  0  0  0  0  0  0  0  0
    0.5864    2.9468    4.0057 N   0  0  0  0  0  0  0  0  0  0  0  0
    2.8835    4.2581    3.1558 H   0  0  0  0  0  0  0  0  0  0  0  0
    1.1963    3.1073    4.7616 H   0  0  0  0  0  0  0  0  0  0  0  0
   -0.7220    2.2490    4.2327 C   0  0  0  0  0  0  0  0  0  0  0  0
   -0.7917    0.7515    4.1840 C   0  0  0  0  0  0  0  0  0  0  0  0
   -2.1000    0.0537    4.4110 C   0  0  0  0  0  0  0  0  0  0  0  0
   -3.3386    0.8536    4.6868 C   0  0  0  0  0  0  0  0  0  0  0  0
   -4.6469    0.1560    4.9139 Cl  0  0  0  0  0  0  0  0  0  0  0  0
   -3.2689    2.3513    4.7356 C   0  0  0  0  0  0  0  0  0  0  0  0
   -1.9606    3.0489    4.5086 C   0  0  0  0  0  0  0  0  0  0  0  0
    3.4104    5.4570   -1.7365 C   0  0  0  0  0  0  0  0  0  0  0  0
    4.1090    4.2848   -1.1138 C   0  0  0  0  0  0  0  0  0  0  0  0
    3.7301    3.8317    0.2650 C   0  0  0  0  0  0  0  0  0  0  0  0
    2.6525    4.5507    1.0211 C   0  0  0  0  0  0  0  0  0  0  0  0
    1.9539    5.7230    0.3984 C   0  0  0  0  0  0  0  0  0  0  0  0
    2.3328    6.1761   -0.9804 C   0  0  0  0  0  0  0  0  0  0  0  0
    3.2403    5.1984   -4.3161 N   0  0  0  0  0  0  0  0  0  0  0  0
    3.7894    5.9102   -3.1153 C   0  0  0  0  0  0  0  0  0  0  0  0
    4.7174    7.0750   -3.2934 N   0  0  0  0  0  0  0  0  0  0  0  0
    3.4890    5.4958   -5.2210 H   0  0  0  0  0  0  0  0  0  0  0  0
    5.0778    7.5422   -2.5053 H   0  0  0  0  0  0  0  0  0  0  0  0
    4.9661    7.3724   -4.1983 H   0  0  0  0  0  0  0  0  0  0  0  0
 20 21  2  0
 21 22  1  0
 21 14  1  0
 14 15  2  0
 14 19  1  0
 15 16  1  0
 16 17  2  0
 17  1  1  0
 17 18  1  0
  1  2  1  0
  2  3  2  0
  2  4  1  0
  4  7  1  0
  7  8  2  0
  7 13  1  0
  8  9  1  0
  9 10  2  0
 10 11  1  0
 10 12  1  0
 12 13  2  0
 18 19  2  0
 20 23  1  0
 22 24  1  0
 22 25  1  0
  1  5  1  0
  4  6  1  0
M  END
> <i_m_Source_File_Index>
1014

> <b_m_subgroup_collapsed>
0

> <s_m_Source_File>
1077.sdf

> <s_m_Source_Path>
C:\Users\hhhx5\OneDrive - University of Missouri\My postDoc working\My metting\19-03-2024\11\create 1077Data

> <s_m_entry_id>
1014

> <s_m_entry_name>
1077.1014

> <s_m_subgroup_title>
1077

> <s_m_subgroupid>
1077

> <minimizedAffinity>
-3.59384

> <CNNscore>
0.2406103164

> <CNNaffinity>
3.7397677898

> <CNN_VS>
0.8998267055

> <CNNaffinity_variance>
0.1731610298

$$$$
