1bjv_GP8


 31 33  0  0  0  0  0  0  0  0999 V2000
   -5.7741    5.2442   -1.1103 N   0  0  0  0  0  0  0  0  0  0  0  0
   -5.6531    4.3687    0.1016 C   0  0  0  0  0  0  0  0  0  0  0  0
   -4.6622    4.7073    1.1756 O   0  0  0  0  0  0  0  0  0  0  0  0
   -6.5229    3.1544    0.2395 N   0  0  0  0  0  0  0  0  0  0  0  0
   -6.4245    5.0220   -1.8152 H   0  0  0  0  0  0  0  0  0  0  0  0
   -7.1733    2.9321   -0.4654 H   0  0  0  0  0  0  0  0  0  0  0  0
   -3.1646    8.8870   -1.5240 C   0  0  0  0  0  0  0  0  0  0  0  0
   -2.5671    7.5175   -1.6556 C   0  0  0  0  0  0  0  0  0  0  0  0
   -3.4369    6.3032   -1.5177 C   0  0  0  0  0  0  0  0  0  0  0  0
   -4.9043    6.4585   -1.2482 C   0  0  0  0  0  0  0  0  0  0  0  0
   -5.5018    7.8280   -1.1166 C   0  0  0  0  0  0  0  0  0  0  0  0
   -4.6320    9.0422   -1.2545 C   0  0  0  0  0  0  0  0  0  0  0  0
   -2.8537   11.3607   -2.2545 N   0  0  0  0  0  0  0  0  0  0  0  0
   -2.2948   10.1012   -1.6619 C   0  0  0  0  0  0  0  0  0  0  0  0
   -0.8661   10.0559   -1.2073 N   0  0  0  0  0  0  0  0  0  0  0  0
   -2.2828   12.1577   -2.3450 H   0  0  0  0  0  0  0  0  0  0  0  0
   -0.4993    9.2292   -0.8183 H   0  0  0  0  0  0  0  0  0  0  0  0
   -0.2952   10.8529   -1.2978 H   0  0  0  0  0  0  0  0  0  0  0  0
   -6.4018    2.2788    1.4515 C   0  0  0  0  0  0  0  0  0  0  0  0
   -5.2631    1.3092    1.5655 C   0  0  0  0  0  0  0  0  0  0  0  0
   -5.1420    0.4336    2.7774 C   0  0  0  0  0  0  0  0  0  0  0  0
   -6.1597    0.5277    3.8753 C   0  0  0  0  0  0  0  0  0  0  0  0
   -7.2985    1.4974    3.7613 C   0  0  0  0  0  0  0  0  0  0  0  0
   -7.4196    2.3729    2.5494 C   0  0  0  0  0  0  0  0  0  0  0  0
   -6.0387   -0.3478    5.0872 O   0  0  0  0  0  0  0  0  0  0  0  0
   -5.0538   -1.4790    5.0999 C   0  0  0  0  0  0  0  0  0  0  0  0
   -3.7189   -1.3039    5.7612 C   0  0  0  0  0  0  0  0  0  0  0  0
   -2.7340   -2.4353    5.7738 C   0  0  0  0  0  0  0  0  0  0  0  0
   -3.0840   -3.7416    5.1250 C   0  0  0  0  0  0  0  0  0  0  0  0
   -4.4189   -3.9167    4.4637 C   0  0  0  0  0  0  0  0  0  0  0  0
   -5.4038   -2.7855    4.4511 C   0  0  0  0  0  0  0  0  0  0  0  0
 13 14  2  0
 14 15  1  0
 14  7  1  0
  7  8  2  0
  7 12  1  0
  8  9  1  0
  9 10  2  0
 10  1  1  0
 10 11  1  0
  1  2  1  0
  2  3  2  0
  2  4  1  0
  4 19  1  0
 19 20  2  0
 19 24  1  0
 20 21  1  0
 21 22  2  0
 22 25  1  0
 22 23  1  0
 25 26  1  0
 26 27  2  0
 26 31  1  0
 27 28  1  0
 28 29  2  0
 29 30  1  0
 30 31  2  0
 23 24  2  0
 11 12  2  0
 13 16  1  0
 15 17  1  0
 15 18  1  0
  1  5  1  0
  4  6  1  0
M  END
> <i_m_Source_File_Index>
608

> <b_m_subgroup_collapsed>
0

> <s_m_Source_File>
1077.sdf

> <s_m_Source_Path>
C:\Users\hhhx5\OneDrive - University of Missouri\My postDoc working\My metting\19-03-2024\11\create 1077Data

> <s_m_entry_id>
608

> <s_m_entry_name>
1077.608

> <s_m_subgroup_title>
1077

> <s_m_subgroupid>
1077

> <minimizedAffinity>
-4.02306

> <CNNscore>
0.5637967587

> <CNNaffinity>
4.5620822906

> <CNN_VS>
2.5720872879

> <CNNaffinity_variance>
0.0598485768

$$$$
1bjv_GP8


 31 33  0  0  0  0  0  0  0  0999 V2000
   -5.9137    5.8366   -1.1026 N   0  0  0  0  0  0  0  0  0  0  0  0
   -5.4455    4.7731   -0.1540 C   0  0  0  0  0  0  0  0  0  0  0  0
   -4.1034    4.8940    0.5050 O   0  0  0  0  0  0  0  0  0  0  0  0
   -6.3194    3.5889    0.1356 N   0  0  0  0  0  0  0  0  0  0  0  0
   -6.7945    5.7573   -1.5352 H   0  0  0  0  0  0  0  0  0  0  0  0
   -7.2002    3.5096   -0.2970 H   0  0  0  0  0  0  0  0  0  0  0  0
   -3.2921    9.3894   -1.9715 C   0  0  0  0  0  0  0  0  0  0  0  0
   -4.2113    9.4075   -0.7863 C   0  0  0  0  0  0  0  0  0  0  0  0
   -5.0851    8.2232   -0.4967 C   0  0  0  0  0  0  0  0  0  0  0  0
   -5.0398    7.0208   -1.3923 C   0  0  0  0  0  0  0  0  0  0  0  0
   -4.1207    7.0027   -2.5775 C   0  0  0  0  0  0  0  0  0  0  0  0
   -3.2468    8.1870   -2.8671 C   0  0  0  0  0  0  0  0  0  0  0  0
   -0.9895   10.5811   -1.8043 N   0  0  0  0  0  0  0  0  0  0  0  0
   -2.4182   10.5736   -2.2611 C   0  0  0  0  0  0  0  0  0  0  0  0
   -2.9731   11.7505   -3.0075 N   0  0  0  0  0  0  0  0  0  0  0  0
   -0.4160   11.3584   -1.9944 H   0  0  0  0  0  0  0  0  0  0  0  0
   -3.9108   11.7456   -3.3073 H   0  0  0  0  0  0  0  0  0  0  0  0
   -2.3995   12.5277   -3.1976 H   0  0  0  0  0  0  0  0  0  0  0  0
   -5.8512    2.5254    1.0842 C   0  0  0  0  0  0  0  0  0  0  0  0
   -5.2932    1.2387    0.5523 C   0  0  0  0  0  0  0  0  0  0  0  0
   -4.8250    0.1752    1.5010 C   0  0  0  0  0  0  0  0  0  0  0  0
   -4.9147    0.3986    2.9816 C   0  0  0  0  0  0  0  0  0  0  0  0
   -5.4727    1.6854    3.5135 C   0  0  0  0  0  0  0  0  0  0  0  0
   -5.9409    2.7488    2.5648 C   0  0  0  0  0  0  0  0  0  0  0  0
   -4.4465   -0.6648    3.9302 O   0  0  0  0  0  0  0  0  0  0  0  0
   -2.9786   -0.9134    4.1129 C   0  0  0  0  0  0  0  0  0  0  0  0
   -2.5015   -2.2347    4.6387 C   0  0  0  0  0  0  0  0  0  0  0  0
   -1.0335   -2.4833    4.8213 C   0  0  0  0  0  0  0  0  0  0  0  0
   -0.0428   -1.4106    4.4782 C   0  0  0  0  0  0  0  0  0  0  0  0
   -0.5199   -0.0893    3.9524 C   0  0  0  0  0  0  0  0  0  0  0  0
   -1.9878    0.1593    3.7697 C   0  0  0  0  0  0  0  0  0  0  0  0
 13 14  2  0
 14 15  1  0
 14  7  1  0
  7  8  2  0
  7 12  1  0
  8  9  1  0
  9 10  2  0
 10  1  1  0
 10 11  1  0
  1  2  1  0
  2  3  2  0
  2  4  1  0
  4 19  1  0
 19 20  2  0
 19 24  1  0
 20 21  1  0
 21 22  2  0
 22 25  1  0
 22 23  1  0
 25 26  1  0
 26 27  2  0
 26 31  1  0
 27 28  1  0
 28 29  2  0
 29 30  1  0
 30 31  2  0
 23 24  2  0
 11 12  2  0
 13 16  1  0
 15 17  1  0
 15 18  1  0
  1  5  1  0
  4  6  1  0
M  END
> <i_m_Source_File_Index>
608

> <b_m_subgroup_collapsed>
0

> <s_m_Source_File>
1077.sdf

> <s_m_Source_Path>
C:\Users\hhhx5\OneDrive - University of Missouri\My postDoc working\My metting\19-03-2024\11\create 1077Data

> <s_m_entry_id>
608

> <s_m_entry_name>
1077.608

> <s_m_subgroup_title>
1077

> <s_m_subgroupid>
1077

> <minimizedAffinity>
-4.11619

> <CNNscore>
0.5579445362

> <CNNaffinity>
4.5338997841

> <CNN_VS>
2.5296645164

> <CNNaffinity_variance>
0.0858675838

$$$$
1bjv_GP8


 31 33  0  0  0  0  0  0  0  0999 V2000
   -5.7985    5.8385   -1.0985 N   0  0  0  0  0  0  0  0  0  0  0  0
   -5.4617    4.7525   -0.1202 C   0  0  0  0  0  0  0  0  0  0  0  0
   -4.1715    4.8046    0.6433 O   0  0  0  0  0  0  0  0  0  0  0  0
   -6.4148    3.6144    0.0945 N   0  0  0  0  0  0  0  0  0  0  0  0
   -6.6452    5.8043   -1.5996 H   0  0  0  0  0  0  0  0  0  0  0  0
   -7.2616    3.5802   -0.4066 H   0  0  0  0  0  0  0  0  0  0  0  0
   -2.9390    9.2529   -1.7428 C   0  0  0  0  0  0  0  0  0  0  0  0
   -3.9856    9.3429   -0.6720 C   0  0  0  0  0  0  0  0  0  0  0  0
   -4.9387    8.2048   -0.4573 C   0  0  0  0  0  0  0  0  0  0  0  0
   -4.8454    6.9766   -1.3133 C   0  0  0  0  0  0  0  0  0  0  0  0
   -3.7988    6.8866   -2.3840 C   0  0  0  0  0  0  0  0  0  0  0  0
   -2.8456    8.0247   -2.5987 C   0  0  0  0  0  0  0  0  0  0  0  0
   -0.5756   10.2930   -1.4560 N   0  0  0  0  0  0  0  0  0  0  0  0
   -1.9858   10.3910   -1.9575 C   0  0  0  0  0  0  0  0  0  0  0  0
   -2.4429   11.6271   -2.6738 N   0  0  0  0  0  0  0  0  0  0  0  0
    0.0500   11.0400   -1.5970 H   0  0  0  0  0  0  0  0  0  0  0  0
   -3.3685   11.6914   -3.0030 H   0  0  0  0  0  0  0  0  0  0  0  0
   -1.8173   12.3741   -2.8147 H   0  0  0  0  0  0  0  0  0  0  0  0
   -6.0779    2.5283    1.0729 C   0  0  0  0  0  0  0  0  0  0  0  0
   -5.6180    2.8813    2.4563 C   0  0  0  0  0  0  0  0  0  0  0  0
   -5.2811    1.7953    3.4346 C   0  0  0  0  0  0  0  0  0  0  0  0
   -5.4040    0.3563    3.0294 C   0  0  0  0  0  0  0  0  0  0  0  0
   -5.8639    0.0033    1.6459 C   0  0  0  0  0  0  0  0  0  0  0  0
   -6.2009    1.0893    0.6677 C   0  0  0  0  0  0  0  0  0  0  0  0
   -5.0671   -0.7298    4.0077 O   0  0  0  0  0  0  0  0  0  0  0  0
   -5.9837   -1.0107    5.1613 C   0  0  0  0  0  0  0  0  0  0  0  0
   -5.4666   -1.7292    6.3723 C   0  0  0  0  0  0  0  0  0  0  0  0
   -6.3832   -2.0101    7.5260 C   0  0  0  0  0  0  0  0  0  0  0  0
   -7.8168   -1.5727    7.4687 C   0  0  0  0  0  0  0  0  0  0  0  0
   -8.3339   -0.8542    6.2577 C   0  0  0  0  0  0  0  0  0  0  0  0
   -7.4174   -0.5733    5.1040 C   0  0  0  0  0  0  0  0  0  0  0  0
 13 14  2  0
 14 15  1  0
 14  7  1  0
  7  8  2  0
  7 12  1  0
  8  9  1  0
  9 10  2  0
 10  1  1  0
 10 11  1  0
  1  2  1  0
  2  3  2  0
  2  4  1  0
  4 19  1  0
 19 20  2  0
 19 24  1  0
 20 21  1  0
 21 22  2  0
 22 25  1  0
 22 23  1  0
 25 26  1  0
 26 27  2  0
 26 31  1  0
 27 28  1  0
 28 29  2  0
 29 30  1  0
 30 31  2  0
 23 24  2  0
 11 12  2  0
 13 16  1  0
 15 17  1  0
 15 18  1  0
  1  5  1  0
  4  6  1  0
M  END
> <i_m_Source_File_Index>
608

> <b_m_subgroup_collapsed>
0

> <s_m_Source_File>
1077.sdf

> <s_m_Source_Path>
C:\Users\hhhx5\OneDrive - University of Missouri\My postDoc working\My metting\19-03-2024\11\create 1077Data

> <s_m_entry_id>
608

> <s_m_entry_name>
1077.608

> <s_m_subgroup_title>
1077

> <s_m_subgroupid>
1077

> <minimizedAffinity>
-3.94210

> <CNNscore>
0.4808954895

> <CNNaffinity>
4.3499426842

> <CNN_VS>
2.0918679237

> <CNNaffinity_variance>
0.0391176827

$$$$
1bjv_GP8


 31 33  0  0  0  0  0  0  0  0999 V2000
   -4.4809    0.7201    1.0207 N   0  0  0  0  0  0  0  0  0  0  0  0
   -4.3941    2.2005    0.7950 C   0  0  0  0  0  0  0  0  0  0  0  0
   -4.5799    3.1466    1.9441 O   0  0  0  0  0  0  0  0  0  0  0  0
   -4.1215    2.7349   -0.5798 N   0  0  0  0  0  0  0  0  0  0  0  0
   -4.3589    0.0992    0.2665 H   0  0  0  0  0  0  0  0  0  0  0  0
   -3.9996    2.1140   -1.3341 H   0  0  0  0  0  0  0  0  0  0  0  0
   -5.2986   -0.8830    5.1452 C   0  0  0  0  0  0  0  0  0  0  0  0
   -3.8933   -0.5624    4.7301 C   0  0  0  0  0  0  0  0  0  0  0  0
   -3.6207   -0.0280    3.3553 C   0  0  0  0  0  0  0  0  0  0  0  0
   -4.7535    0.1858    2.3955 C   0  0  0  0  0  0  0  0  0  0  0  0
   -6.1587   -0.1348    2.8106 C   0  0  0  0  0  0  0  0  0  0  0  0
   -6.4313   -0.6692    4.1854 C   0  0  0  0  0  0  0  0  0  0  0  0
   -4.4910   -2.1353    7.2734 N   0  0  0  0  0  0  0  0  0  0  0  0
   -5.5712   -1.4173    6.5200 C   0  0  0  0  0  0  0  0  0  0  0  0
   -6.9240   -1.2338    7.1414 N   0  0  0  0  0  0  0  0  0  0  0  0
   -4.6699   -2.4860    8.1757 H   0  0  0  0  0  0  0  0  0  0  0  0
   -7.6330   -0.7626    6.6470 H   0  0  0  0  0  0  0  0  0  0  0  0
   -7.1028   -1.5845    8.0438 H   0  0  0  0  0  0  0  0  0  0  0  0
   -4.0348    4.2153   -0.8055 C   0  0  0  0  0  0  0  0  0  0  0  0
   -5.1455    4.9323   -1.5141 C   0  0  0  0  0  0  0  0  0  0  0  0
   -5.0588    6.4128   -1.7397 C   0  0  0  0  0  0  0  0  0  0  0  0
   -3.8612    7.1761   -1.2568 C   0  0  0  0  0  0  0  0  0  0  0  0
   -2.7505    6.4590   -0.5482 C   0  0  0  0  0  0  0  0  0  0  0  0
   -2.8372    4.9786   -0.3226 C   0  0  0  0  0  0  0  0  0  0  0  0
   -3.7744    8.6565   -1.4824 O   0  0  0  0  0  0  0  0  0  0  0  0
   -5.0278    9.4739   -1.5872 C   0  0  0  0  0  0  0  0  0  0  0  0
   -5.3838   10.1381   -2.8841 C   0  0  0  0  0  0  0  0  0  0  0  0
   -6.6372   10.9555   -2.9888 C   0  0  0  0  0  0  0  0  0  0  0  0
   -7.5345   11.1087   -1.7966 C   0  0  0  0  0  0  0  0  0  0  0  0
   -7.1784   10.4445   -0.4996 C   0  0  0  0  0  0  0  0  0  0  0  0
   -5.9251    9.6271   -0.3949 C   0  0  0  0  0  0  0  0  0  0  0  0
 13 14  2  0
 14 15  1  0
 14  7  1  0
  7  8  2  0
  7 12  1  0
  8  9  1  0
  9 10  2  0
 10  1  1  0
 10 11  1  0
  1  2  1  0
  2  3  2  0
  2  4  1  0
  4 19  1  0
 19 20  2  0
 19 24  1  0
 20 21  1  0
 21 22  2  0
 22 25  1  0
 22 23  1  0
 25 26  1  0
 26 27  2  0
 26 31  1  0
 27 28  1  0
 28 29  2  0
 29 30  1  0
 30 31  2  0
 23 24  2  0
 11 12  2  0
 13 16  1  0
 15 17  1  0
 15 18  1  0
  1  5  1  0
  4  6  1  0
M  END
> <i_m_Source_File_Index>
608

> <b_m_subgroup_collapsed>
0

> <s_m_Source_File>
1077.sdf

> <s_m_Source_Path>
C:\Users\hhhx5\OneDrive - University of Missouri\My postDoc working\My metting\19-03-2024\11\create 1077Data

> <s_m_entry_id>
608

> <s_m_entry_name>
1077.608

> <s_m_subgroup_title>
1077

> <s_m_subgroupid>
1077

> <minimizedAffinity>
-3.98375

> <CNNscore>
0.4687625766

> <CNNaffinity>
4.1789898872

> <CNN_VS>
1.9589540958

> <CNNaffinity_variance>
0.0463694148

$$$$
1bjv_GP8


 31 33  0  0  0  0  0  0  0  0999 V2000
   -6.2057    2.0426    2.7562 N   0  0  0  0  0  0  0  0  0  0  0  0
   -4.8074    2.5783    2.8438 C   0  0  0  0  0  0  0  0  0  0  0  0
   -4.4961    3.7141    3.7729 O   0  0  0  0  0  0  0  0  0  0  0  0
   -3.7202    1.9782    2.0024 N   0  0  0  0  0  0  0  0  0  0  0  0
   -6.4099    1.2971    2.1465 H   0  0  0  0  0  0  0  0  0  0  0  0
   -3.9244    1.2327    1.3926 H   0  0  0  0  0  0  0  0  0  0  0  0
   -9.4671    3.8428    5.2805 C   0  0  0  0  0  0  0  0  0  0  0  0
   -8.5349    4.7328    4.5132 C   0  0  0  0  0  0  0  0  0  0  0  0
   -7.4478    4.1327    3.6718 C   0  0  0  0  0  0  0  0  0  0  0  0
   -7.2928    2.6426    3.5977 C   0  0  0  0  0  0  0  0  0  0  0  0
   -8.2250    1.7526    4.3650 C   0  0  0  0  0  0  0  0  0  0  0  0
   -9.3121    2.3527    5.2064 C   0  0  0  0  0  0  0  0  0  0  0  0
  -11.7636    3.6295    6.4766 N   0  0  0  0  0  0  0  0  0  0  0  0
  -10.5543    4.4429    6.1220 C   0  0  0  0  0  0  0  0  0  0  0  0
  -10.4321    5.8564    6.6088 N   0  0  0  0  0  0  0  0  0  0  0  0
  -12.4771    4.0233    7.0288 H   0  0  0  0  0  0  0  0  0  0  0  0
   -9.6383    6.3903    6.3760 H   0  0  0  0  0  0  0  0  0  0  0  0
  -11.1456    6.2502    7.1610 H   0  0  0  0  0  0  0  0  0  0  0  0
   -2.3218    2.5140    2.0900 C   0  0  0  0  0  0  0  0  0  0  0  0
   -1.3554    1.9300    3.0773 C   0  0  0  0  0  0  0  0  0  0  0  0
    0.0430    2.4657    3.1650 C   0  0  0  0  0  0  0  0  0  0  0  0
    0.4748    3.5855    2.2652 C   0  0  0  0  0  0  0  0  0  0  0  0
   -0.4917    4.1695    1.2778 C   0  0  0  0  0  0  0  0  0  0  0  0
   -1.8900    3.6338    1.1902 C   0  0  0  0  0  0  0  0  0  0  0  0
    1.8731    4.1213    2.3528 O   0  0  0  0  0  0  0  0  0  0  0  0
    2.8774    3.7728    1.2946 C   0  0  0  0  0  0  0  0  0  0  0  0
    3.7531    2.5662    1.4599 C   0  0  0  0  0  0  0  0  0  0  0  0
    4.7575    2.2177    0.4016 C   0  0  0  0  0  0  0  0  0  0  0  0
    4.8861    3.0758   -0.8219 C   0  0  0  0  0  0  0  0  0  0  0  0
    4.0104    4.2823   -0.9873 C   0  0  0  0  0  0  0  0  0  0  0  0
    3.0060    4.6309    0.0709 C   0  0  0  0  0  0  0  0  0  0  0  0
 13 14  2  0
 14 15  1  0
 14  7  1  0
  7  8  2  0
  7 12  1  0
  8  9  1  0
  9 10  2  0
 10  1  1  0
 10 11  1  0
  1  2  1  0
  2  3  2  0
  2  4  1  0
  4 19  1  0
 19 20  2  0
 19 24  1  0
 20 21  1  0
 21 22  2  0
 22 25  1  0
 22 23  1  0
 25 26  1  0
 26 27  2  0
 26 31  1  0
 27 28  1  0
 28 29  2  0
 29 30  1  0
 30 31  2  0
 23 24  2  0
 11 12  2  0
 13 16  1  0
 15 17  1  0
 15 18  1  0
  1  5  1  0
  4  6  1  0
M  END
> <i_m_Source_File_Index>
608

> <b_m_subgroup_collapsed>
0

> <s_m_Source_File>
1077.sdf

> <s_m_Source_Path>
C:\Users\hhhx5\OneDrive - University of Missouri\My postDoc working\My metting\19-03-2024\11\create 1077Data

> <s_m_entry_id>
608

> <s_m_entry_name>
1077.608

> <s_m_subgroup_title>
1077

> <s_m_subgroupid>
1077

> <minimizedAffinity>
-5.04820

> <CNNscore>
0.4579739571

> <CNNaffinity>
4.1051921844

> <CNN_VS>
1.8800711632

> <CNNaffinity_variance>
0.8668219447

$$$$
1bjv_GP8


 31 33  0  0  0  0  0  0  0  0999 V2000
   -5.7439    5.4554   -0.4916 N   0  0  0  0  0  0  0  0  0  0  0  0
   -4.8323    4.5994    0.3368 C   0  0  0  0  0  0  0  0  0  0  0  0
   -3.4129    5.0239    0.5717 O   0  0  0  0  0  0  0  0  0  0  0  0
   -5.3402    3.3188    0.9303 N   0  0  0  0  0  0  0  0  0  0  0  0
   -6.6754    5.1768   -0.6458 H   0  0  0  0  0  0  0  0  0  0  0  0
   -6.2717    3.0402    0.7762 H   0  0  0  0  0  0  0  0  0  0  0  0
   -4.2204    9.2971   -2.2723 C   0  0  0  0  0  0  0  0  0  0  0  0
   -4.5922    9.2390   -0.8203 C   0  0  0  0  0  0  0  0  0  0  0  0
   -5.1001    7.9585   -0.2267 C   0  0  0  0  0  0  0  0  0  0  0  0
   -5.2360    6.7360   -1.0852 C   0  0  0  0  0  0  0  0  0  0  0  0
   -4.8642    6.7940   -2.5371 C   0  0  0  0  0  0  0  0  0  0  0  0
   -4.3564    8.0746   -3.1307 C   0  0  0  0  0  0  0  0  0  0  0  0
   -2.5671   11.3006   -2.2214 N   0  0  0  0  0  0  0  0  0  0  0  0
   -3.7126   10.5776   -2.8658 C   0  0  0  0  0  0  0  0  0  0  0  0
   -4.3502   11.1352   -4.1037 N   0  0  0  0  0  0  0  0  0  0  0  0
   -2.2339   12.1411   -2.6110 H   0  0  0  0  0  0  0  0  0  0  0  0
   -5.1020   10.6607   -4.5267 H   0  0  0  0  0  0  0  0  0  0  0  0
   -4.0169   11.9757   -4.4933 H   0  0  0  0  0  0  0  0  0  0  0  0
   -4.4286    2.4628    1.7588 C   0  0  0  0  0  0  0  0  0  0  0  0
   -3.5144    1.4775    1.0928 C   0  0  0  0  0  0  0  0  0  0  0  0
   -2.6028    0.6215    1.9212 C   0  0  0  0  0  0  0  0  0  0  0  0
   -2.6054    0.7508    3.4156 C   0  0  0  0  0  0  0  0  0  0  0  0
   -3.5196    1.7361    4.0816 C   0  0  0  0  0  0  0  0  0  0  0  0
   -4.4312    2.5920    3.2532 C   0  0  0  0  0  0  0  0  0  0  0  0
   -1.6939   -0.1052    4.2441 O   0  0  0  0  0  0  0  0  0  0  0  0
   -2.0752   -1.5215    4.5581 C   0  0  0  0  0  0  0  0  0  0  0  0
   -2.8776   -1.8271    5.7881 C   0  0  0  0  0  0  0  0  0  0  0  0
   -3.2589   -3.2435    6.1021 C   0  0  0  0  0  0  0  0  0  0  0  0
   -2.8378   -4.3542    5.1862 C   0  0  0  0  0  0  0  0  0  0  0  0
   -2.0354   -4.0486    3.9562 C   0  0  0  0  0  0  0  0  0  0  0  0
   -1.6541   -2.6323    3.6422 C   0  0  0  0  0  0  0  0  0  0  0  0
 13 14  2  0
 14 15  1  0
 14  7  1  0
  7  8  2  0
  7 12  1  0
  8  9  1  0
  9 10  2  0
 10  1  1  0
 10 11  1  0
  1  2  1  0
  2  3  2  0
  2  4  1  0
  4 19  1  0
 19 20  2  0
 19 24  1  0
 20 21  1  0
 21 22  2  0
 22 25  1  0
 22 23  1  0
 25 26  1  0
 26 27  2  0
 26 31  1  0
 27 28  1  0
 28 29  2  0
 29 30  1  0
 30 31  2  0
 23 24  2  0
 11 12  2  0
 13 16  1  0
 15 17  1  0
 15 18  1  0
  1  5  1  0
  4  6  1  0
M  END
> <i_m_Source_File_Index>
608

> <b_m_subgroup_collapsed>
0

> <s_m_Source_File>
1077.sdf

> <s_m_Source_Path>
C:\Users\hhhx5\OneDrive - University of Missouri\My postDoc working\My metting\19-03-2024\11\create 1077Data

> <s_m_entry_id>
608

> <s_m_entry_name>
1077.608

> <s_m_subgroup_title>
1077

> <s_m_subgroupid>
1077

> <minimizedAffinity>
-4.03082

> <CNNscore>
0.4092951417

> <CNNaffinity>
4.1873483658

> <CNN_VS>
1.7138613462

> <CNNaffinity_variance>
0.0831582844

$$$$
1bjv_GP8


 31 33  0  0  0  0  0  0  0  0999 V2000
   -5.5857    5.9076   -0.5517 N   0  0  0  0  0  0  0  0  0  0  0  0
   -4.5444    5.1718    0.2383 C   0  0  0  0  0  0  0  0  0  0  0  0
   -3.1709    5.7541    0.3945 O   0  0  0  0  0  0  0  0  0  0  0  0
   -4.8766    3.8535    0.8723 N   0  0  0  0  0  0  0  0  0  0  0  0
   -6.4871    5.5253   -0.6542 H   0  0  0  0  0  0  0  0  0  0  0  0
   -5.7780    3.4713    0.7699 H   0  0  0  0  0  0  0  0  0  0  0  0
   -4.5892    9.8623   -2.4537 C   0  0  0  0  0  0  0  0  0  0  0  0
   -4.4673    8.5960   -3.2484 C   0  0  0  0  0  0  0  0  0  0  0  0
   -4.7995    7.2777   -2.6144 C   0  0  0  0  0  0  0  0  0  0  0  0
   -5.2535    7.2258   -1.1857 C   0  0  0  0  0  0  0  0  0  0  0  0
   -5.3753    8.4921   -0.3910 C   0  0  0  0  0  0  0  0  0  0  0  0
   -5.0432    9.8103   -1.0250 C   0  0  0  0  0  0  0  0  0  0  0  0
   -3.1723   12.0393   -2.5082 N   0  0  0  0  0  0  0  0  0  0  0  0
   -4.2570   11.1805   -3.0877 C   0  0  0  0  0  0  0  0  0  0  0  0
   -5.0095   11.6400   -4.3011 N   0  0  0  0  0  0  0  0  0  0  0  0
   -2.9542   12.9045   -2.9243 H   0  0  0  0  0  0  0  0  0  0  0  0
   -5.7215   11.0763   -4.6815 H   0  0  0  0  0  0  0  0  0  0  0  0
   -4.7915   12.5052   -4.7172 H   0  0  0  0  0  0  0  0  0  0  0  0
   -3.8352    3.1177    1.6624 C   0  0  0  0  0  0  0  0  0  0  0  0
   -2.9150    2.1530    0.9751 C   0  0  0  0  0  0  0  0  0  0  0  0
   -1.8736    1.4172    1.7652 C   0  0  0  0  0  0  0  0  0  0  0  0
   -1.7526    1.6461    3.2427 C   0  0  0  0  0  0  0  0  0  0  0  0
   -2.6729    2.6108    3.9300 C   0  0  0  0  0  0  0  0  0  0  0  0
   -3.7142    3.3466    3.1399 C   0  0  0  0  0  0  0  0  0  0  0  0
   -0.7113    0.9103    4.0328 O   0  0  0  0  0  0  0  0  0  0  0  0
    0.7229    0.9408    3.5947 C   0  0  0  0  0  0  0  0  0  0  0  0
    1.5298    2.1950    3.7554 C   0  0  0  0  0  0  0  0  0  0  0  0
    2.9641    2.2254    3.3173 C   0  0  0  0  0  0  0  0  0  0  0  0
    3.5915    1.0016    2.7184 C   0  0  0  0  0  0  0  0  0  0  0  0
    2.7846   -0.2527    2.5576 C   0  0  0  0  0  0  0  0  0  0  0  0
    1.3504   -0.2831    2.9957 C   0  0  0  0  0  0  0  0  0  0  0  0
 13 14  2  0
 14 15  1  0
 14  7  1  0
  7  8  2  0
  7 12  1  0
  8  9  1  0
  9 10  2  0
 10  1  1  0
 10 11  1  0
  1  2  1  0
  2  3  2  0
  2  4  1  0
  4 19  1  0
 19 20  2  0
 19 24  1  0
 20 21  1  0
 21 22  2  0
 22 25  1  0
 22 23  1  0
 25 26  1  0
 26 27  2  0
 26 31  1  0
 27 28  1  0
 28 29  2  0
 29 30  1  0
 30 31  2  0
 23 24  2  0
 11 12  2  0
 13 16  1  0
 15 17  1  0
 15 18  1  0
  1  5  1  0
  4  6  1  0
M  END
> <i_m_Source_File_Index>
608

> <b_m_subgroup_collapsed>
0

> <s_m_Source_File>
1077.sdf

> <s_m_Source_Path>
C:\Users\hhhx5\OneDrive - University of Missouri\My postDoc working\My metting\19-03-2024\11\create 1077Data

> <s_m_entry_id>
608

> <s_m_entry_name>
1077.608

> <s_m_subgroup_title>
1077

> <s_m_subgroupid>
1077

> <minimizedAffinity>
-4.52569

> <CNNscore>
0.3713994920

> <CNNaffinity>
4.1902532578

> <CNN_VS>
1.5562579632

> <CNNaffinity_variance>
0.3577838242

$$$$
1bjv_GP8


 31 33  0  0  0  0  0  0  0  0999 V2000
   -5.5951    5.4821   -0.5316 N   0  0  0  0  0  0  0  0  0  0  0  0
   -4.5760    4.7533    0.2933 C   0  0  0  0  0  0  0  0  0  0  0  0
   -3.2330    5.3723    0.5448 O   0  0  0  0  0  0  0  0  0  0  0  0
   -4.9000    3.4056    0.8666 N   0  0  0  0  0  0  0  0  0  0  0  0
   -6.4765    5.0758   -0.6967 H   0  0  0  0  0  0  0  0  0  0  0  0
   -5.7814    2.9994    0.7015 H   0  0  0  0  0  0  0  0  0  0  0  0
   -4.6232    9.5252   -2.2517 C   0  0  0  0  0  0  0  0  0  0  0  0
   -4.7774    8.3412   -3.1597 C   0  0  0  0  0  0  0  0  0  0  0  0
   -5.1013    6.9935   -2.5863 C   0  0  0  0  0  0  0  0  0  0  0  0
   -5.2711    6.8298   -1.1050 C   0  0  0  0  0  0  0  0  0  0  0  0
   -5.1170    8.0137   -0.1970 C   0  0  0  0  0  0  0  0  0  0  0  0
   -4.7930    9.3615   -0.7704 C   0  0  0  0  0  0  0  0  0  0  0  0
   -4.9721   12.0995   -2.2841 N   0  0  0  0  0  0  0  0  0  0  0  0
   -4.2993   10.8729   -2.8251 C   0  0  0  0  0  0  0  0  0  0  0  0
   -3.3026   10.9940   -3.9394 N   0  0  0  0  0  0  0  0  0  0  0  0
   -4.7595   12.9841   -2.6604 H   0  0  0  0  0  0  0  0  0  0  0  0
   -2.8610   10.1889   -4.2945 H   0  0  0  0  0  0  0  0  0  0  0  0
   -3.0900   11.8785   -4.3157 H   0  0  0  0  0  0  0  0  0  0  0  0
   -3.8809    2.6769    1.6916 C   0  0  0  0  0  0  0  0  0  0  0  0
   -3.7663    2.9564    3.1608 C   0  0  0  0  0  0  0  0  0  0  0  0
   -2.7472    2.2277    3.9857 C   0  0  0  0  0  0  0  0  0  0  0  0
   -1.8427    1.2194    3.3414 C   0  0  0  0  0  0  0  0  0  0  0  0
   -1.9573    0.9399    1.8720 C   0  0  0  0  0  0  0  0  0  0  0  0
   -2.9763    1.6686    1.0472 C   0  0  0  0  0  0  0  0  0  0  0  0
   -0.8236    0.4907    4.1662 O   0  0  0  0  0  0  0  0  0  0  0  0
   -0.8769   -1.0044    4.2749 C   0  0  0  0  0  0  0  0  0  0  0  0
    0.1748   -1.8426    3.6105 C   0  0  0  0  0  0  0  0  0  0  0  0
    0.1215   -3.3378    3.7192 C   0  0  0  0  0  0  0  0  0  0  0  0
   -0.9834   -3.9946    4.4923 C   0  0  0  0  0  0  0  0  0  0  0  0
   -2.0351   -3.1564    5.1567 C   0  0  0  0  0  0  0  0  0  0  0  0
   -1.9818   -1.6613    5.0480 C   0  0  0  0  0  0  0  0  0  0  0  0
 13 14  2  0
 14 15  1  0
 14  7  1  0
  7  8  2  0
  7 12  1  0
  8  9  1  0
  9 10  2  0
 10  1  1  0
 10 11  1  0
  1  2  1  0
  2  3  2  0
  2  4  1  0
  4 19  1  0
 19 20  2  0
 19 24  1  0
 20 21  1  0
 21 22  2  0
 22 25  1  0
 22 23  1  0
 25 26  1  0
 26 27  2  0
 26 31  1  0
 27 28  1  0
 28 29  2  0
 29 30  1  0
 30 31  2  0
 23 24  2  0
 11 12  2  0
 13 16  1  0
 15 17  1  0
 15 18  1  0
  1  5  1  0
  4  6  1  0
M  END
> <i_m_Source_File_Index>
608

> <b_m_subgroup_collapsed>
0

> <s_m_Source_File>
1077.sdf

> <s_m_Source_Path>
C:\Users\hhhx5\OneDrive - University of Missouri\My postDoc working\My metting\19-03-2024\11\create 1077Data

> <s_m_entry_id>
608

> <s_m_entry_name>
1077.608

> <s_m_subgroup_title>
1077

> <s_m_subgroupid>
1077

> <minimizedAffinity>
-4.02831

> <CNNscore>
0.3611388803

> <CNNaffinity>
4.1795659065

> <CNN_VS>
1.5094037056

> <CNNaffinity_variance>
0.0906858072

$$$$
1bjv_GP8


 31 33  0  0  0  0  0  0  0  0999 V2000
   -2.5445    7.8956   -3.8159 N   0  0  0  0  0  0  0  0  0  0  0  0
   -1.5308    7.5066   -2.7811 C   0  0  0  0  0  0  0  0  0  0  0  0
   -1.2936    8.3917   -1.5935 O   0  0  0  0  0  0  0  0  0  0  0  0
   -0.7541    6.2324   -2.9338 N   0  0  0  0  0  0  0  0  0  0  0  0
   -2.7002    7.3147   -4.5953 H   0  0  0  0  0  0  0  0  0  0  0  0
   -0.9097    5.6515   -3.7132 H   0  0  0  0  0  0  0  0  0  0  0  0
   -4.8745   11.7181   -3.3578 C   0  0  0  0  0  0  0  0  0  0  0  0
   -3.7234   11.6518   -4.3172 C   0  0  0  0  0  0  0  0  0  0  0  0
   -2.9467   10.3776   -4.4699 C   0  0  0  0  0  0  0  0  0  0  0  0
   -3.3212    9.1698   -3.6632 C   0  0  0  0  0  0  0  0  0  0  0  0
   -4.4723    9.2361   -2.7038 C   0  0  0  0  0  0  0  0  0  0  0  0
   -5.2489   10.5102   -2.5511 C   0  0  0  0  0  0  0  0  0  0  0  0
   -5.2742   13.9771   -2.1384 N   0  0  0  0  0  0  0  0  0  0  0  0
   -5.6511   12.9923   -3.2051 C   0  0  0  0  0  0  0  0  0  0  0  0
   -6.8047   13.2816   -4.1191 N   0  0  0  0  0  0  0  0  0  0  0  0
   -5.7839   14.8134   -2.0381 H   0  0  0  0  0  0  0  0  0  0  0  0
   -7.0522   12.6352   -4.8192 H   0  0  0  0  0  0  0  0  0  0  0  0
   -7.3145   14.1178   -4.0188 H   0  0  0  0  0  0  0  0  0  0  0  0
    0.2597    5.8434   -1.8989 C   0  0  0  0  0  0  0  0  0  0  0  0
   -0.1718    5.1048   -0.6667 C   0  0  0  0  0  0  0  0  0  0  0  0
    0.8420    4.7158    0.3682 C   0  0  0  0  0  0  0  0  0  0  0  0
    2.2873    5.0654    0.1709 C   0  0  0  0  0  0  0  0  0  0  0  0
    2.7187    5.8041   -1.0614 C   0  0  0  0  0  0  0  0  0  0  0  0
    1.7050    6.1931   -2.0962 C   0  0  0  0  0  0  0  0  0  0  0  0
    3.3010    4.6765    1.2057 O   0  0  0  0  0  0  0  0  0  0  0  0
    3.2967    3.2889    1.7755 C   0  0  0  0  0  0  0  0  0  0  0  0
    4.0947    2.2043    1.1147 C   0  0  0  0  0  0  0  0  0  0  0  0
    4.0903    0.8167    1.6845 C   0  0  0  0  0  0  0  0  0  0  0  0
    3.2879    0.5138    2.9151 C   0  0  0  0  0  0  0  0  0  0  0  0
    2.4899    1.5985    3.5759 C   0  0  0  0  0  0  0  0  0  0  0  0
    2.4942    2.9860    3.0061 C   0  0  0  0  0  0  0  0  0  0  0  0
 13 14  2  0
 14 15  1  0
 14  7  1  0
  7  8  2  0
  7 12  1  0
  8  9  1  0
  9 10  2  0
 10  1  1  0
 10 11  1  0
  1  2  1  0
  2  3  2  0
  2  4  1  0
  4 19  1  0
 19 20  2  0
 19 24  1  0
 20 21  1  0
 21 22  2  0
 22 25  1  0
 22 23  1  0
 25 26  1  0
 26 27  2  0
 26 31  1  0
 27 28  1  0
 28 29  2  0
 29 30  1  0
 30 31  2  0
 23 24  2  0
 11 12  2  0
 13 16  1  0
 15 17  1  0
 15 18  1  0
  1  5  1  0
  4  6  1  0
M  END
> <i_m_Source_File_Index>
608

> <b_m_subgroup_collapsed>
0

> <s_m_Source_File>
1077.sdf

> <s_m_Source_Path>
C:\Users\hhhx5\OneDrive - University of Missouri\My postDoc working\My metting\19-03-2024\11\create 1077Data

> <s_m_entry_id>
608

> <s_m_entry_name>
1077.608

> <s_m_subgroup_title>
1077

> <s_m_subgroupid>
1077

> <minimizedAffinity>
-3.81314

> <CNNscore>
0.3490658402

> <CNNaffinity>
3.6457748413

> <CNN_VS>
1.2726154327

> <CNNaffinity_variance>
0.6009784341

$$$$
