4k9y_K9Y
     RDKit          3D

 63 67  0  0  0  0  0  0  0  0999 V2000
  -28.9920  -30.8790    9.2530 C   0  0  0  0  0  0  0  0  0  0  0  0
  -28.3570  -30.7960    8.0980 N   0  0  0  0  0  0  0  0  0  0  0  0
  -27.9110  -31.8900    7.4740 C   0  0  0  0  0  0  0  0  0  0  0  0
  -28.1370  -33.1700    8.0430 C   0  0  0  0  0  0  0  0  0  0  0  0
  -28.8230  -33.2120    9.2750 C   0  0  0  0  0  0  0  0  0  0  0  0
  -29.2010  -32.0540    9.8360 N   0  0  0  0  0  0  0  0  0  0  0  0
  -27.5860  -34.0950    7.2120 N   0  0  0  0  0  0  0  0  0  0  0  0
  -27.2560  -32.1210    6.2950 N   0  0  0  0  0  0  0  0  0  0  0  0
  -27.0430  -33.4820    6.1950 C   0  0  0  0  0  0  0  0  0  0  0  0
  -26.5330  -29.0100    4.3790 C   0  0  0  0  0  0  0  0  0  0  0  0
  -25.1470  -29.1540    4.2340 C   0  0  0  0  0  0  0  0  0  0  0  0
  -24.5140  -30.3230    4.6740 C   0  0  0  0  0  0  0  0  0  0  0  0
  -25.2630  -31.2740    5.3480 C   0  0  0  0  0  0  0  0  0  0  0  0
  -26.6440  -31.1320    5.5100 C   0  0  0  0  0  0  0  0  0  0  0  0
  -27.2830  -29.9840    5.0410 C   0  0  0  0  0  0  0  0  0  0  0  0
  -20.7620  -25.7080    1.9370 N   0  0  0  0  0  0  0  0  0  0  0  0
  -21.2830  -26.8890    2.3700 C   0  0  0  0  0  0  0  0  0  0  0  0
  -20.2910  -27.8290    2.3370 C   0  0  0  0  0  0  0  0  0  0  0  0
  -19.1070  -27.1840    1.9880 C   0  0  0  0  0  0  0  0  0  0  0  0
  -19.4050  -25.9340    1.7240 N   0  0  0  0  0  0  0  0  0  0  0  0
  -17.7520  -27.8270    1.7930 C   0  0  1  0  0  0  0  0  0  0  0  0
  -21.4300  -24.4800    1.7160 C   0  0  0  0  0  0  0  0  0  0  0  0
  -21.0720  -23.7580    0.5780 C   0  0  0  0  0  0  0  0  0  0  0  0
  -21.6740  -22.5400    0.3010 C   0  0  0  0  0  0  0  0  0  0  0  0
  -22.6870  -22.0680    1.1410 C   0  0  0  0  0  0  0  0  0  0  0  0
  -23.0820  -22.7990    2.2710 C   0  0  0  0  0  0  0  0  0  0  0  0
  -22.4250  -23.9920    2.5800 C   0  0  0  0  0  0  0  0  0  0  0  0
  -23.3740  -20.7630    0.7860 C   0  0  0  0  0  0  0  0  0  0  0  0
  -22.6320  -27.1280    2.6150 N   0  0  0  0  0  0  0  0  0  0  0  0
  -23.0950  -28.0790    3.4350 C   0  0  0  0  0  0  0  0  0  0  0  0
  -22.3350  -28.8050    4.0720 O   0  0  0  0  0  0  0  0  0  0  0  0
  -24.4490  -28.2040    3.4900 N   0  0  0  0  0  0  0  0  0  0  0  0
  -17.8420  -28.8120    0.6280 C   0  0  0  0  0  0  0  0  0  0  0  0
  -16.7370  -26.7570    1.3860 C   0  0  0  0  0  0  0  0  0  0  0  0
  -17.2440  -28.5970    3.0140 C   0  0  0  0  0  0  0  0  0  0  0  0
  -28.9930  -34.4050    9.9540 N   0  0  0  0  0  0  0  0  0  0  0  0
  -29.3533  -29.9610    9.7396 H   0  0  0  0  0  0  0  0  0  0  0  0
  -26.4963  -33.9767    5.3787 H   0  0  0  0  0  0  0  0  0  0  0  0
  -27.0348  -28.1217    3.9677 H   0  0  0  0  0  0  0  0  0  0  0  0
  -23.4418  -30.4833    4.4879 H   0  0  0  0  0  0  0  0  0  0  0  0
  -24.7602  -32.1594    5.7644 H   0  0  0  0  0  0  0  0  0  0  0  0
  -28.3642  -29.8479    5.1909 H   0  0  0  0  0  0  0  0  0  0  0  0
  -20.4071  -28.9023    2.5482 H   0  0  0  0  0  0  0  0  0  0  0  0
  -20.3071  -24.1573   -0.1043 H   0  0  0  0  0  0  0  0  0  0  0  0
  -21.3573  -21.9503   -0.5719 H   0  0  0  0  0  0  0  0  0  0  0  0
  -23.9019  -22.4359    2.9081 H   0  0  0  0  0  0  0  0  0  0  0  0
  -22.6848  -24.5462    3.4940 H   0  0  0  0  0  0  0  0  0  0  0  0
  -23.6531  -20.2328    1.7085 H   0  0  0  0  0  0  0  0  0  0  0  0
  -22.6888  -20.1366    0.1960 H   0  0  0  0  0  0  0  0  0  0  0  0
  -24.2783  -20.9733    0.1960 H   0  0  0  0  0  0  0  0  0  0  0  0
  -23.3205  -26.5328    2.1327 H   0  0  0  0  0  0  0  0  0  0  0  0
  -25.0060  -27.5395    2.9341 H   0  0  0  0  0  0  0  0  0  0  0  0
  -17.9355  -29.8356    1.0197 H   0  0  0  0  0  0  0  0  0  0  0  0
  -18.7220  -28.5730    0.0129 H   0  0  0  0  0  0  0  0  0  0  0  0
  -16.9332  -28.7364    0.0129 H   0  0  0  0  0  0  0  0  0  0  0  0
  -16.3039  -26.3004    2.2882 H   0  0  0  0  0  0  0  0  0  0  0  0
  -15.9371  -27.2188    0.7886 H   0  0  0  0  0  0  0  0  0  0  0  0
  -17.2403  -25.9825    0.7886 H   0  0  0  0  0  0  0  0  0  0  0  0
  -17.5780  -28.0908    3.9317 H   0  0  0  0  0  0  0  0  0  0  0  0
  -17.6441  -29.6214    2.9940 H   0  0  0  0  0  0  0  0  0  0  0  0
  -16.1447  -28.6322    2.9940 H   0  0  0  0  0  0  0  0  0  0  0  0
  -29.4963  -34.4190   10.8526 H   0  0  0  0  0  0  0  0  0  0  0  0
  -28.6163  -35.2794    9.5611 H   0  0  0  0  0  0  0  0  0  0  0  0
  2  1  2  0
  3  2  1  0
  4  3  2  0
  5  4  1  0
  6  5  2  0
  6  1  1  0
  7  4  1  0
  8  3  1  0
  9  7  2  0
  9  8  1  0
 11 10  2  0
 12 11  1  0
 13 12  2  0
 14  8  1  0
 14 13  1  0
 15 10  1  0
 15 14  2  0
 17 16  1  0
 18 17  2  0
 19 18  1  0
 20 19  2  0
 20 16  1  0
 21 19  1  0
 22 16  1  0
 23 22  2  0
 24 23  1  0
 25 24  2  0
 26 25  1  0
 27 26  2  0
 27 22  1  0
 28 25  1  0
 29 17  1  0
 30 29  1  0
 31 30  2  0
 32 30  1  0
 32 11  1  0
 21 33  1  6
 34 21  1  0
 35 21  1  0
 36  5  1  0
  1 37  1  0
  9 38  1  0
 10 39  1  0
 12 40  1  0
 13 41  1  0
 15 42  1  0
 18 43  1  0
 23 44  1  0
 24 45  1  0
 26 46  1  0
 27 47  1  0
 28 48  1  0
 28 49  1  0
 28 50  1  0
 29 51  1  0
 32 52  1  0
 33 53  1  0
 33 54  1  0
 33 55  1  0
 34 56  1  0
 34 57  1  0
 34 58  1  0
 35 59  1  0
 35 60  1  0
 35 61  1  0
 36 62  1  0
 36 63  1  0
M  END
>  <pdb_id>  (556) 
4k9y

$$$$
3fql_79Z
     RDKit          3D

 54 57  0  0  0  0  0  0  0  0999 V2000
  -14.2680   -9.6220   12.1590 C   0  0  0  0  0  0  0  0  0  0  0  0
  -14.4440   -9.7210   10.6420 C   0  0  1  0  0  0  0  0  0  0  0  0
  -13.1480  -10.1830   11.2940 C   0  0  0  0  0  0  0  0  0  0  0  0
  -18.4190  -16.0240    9.0740 C   0  0  0  0  0  0  0  0  0  0  0  0
  -17.6810  -17.1960    9.1660 C   0  0  0  0  0  0  0  0  0  0  0  0
  -18.2820  -18.3960    8.8350 C   0  0  0  0  0  0  0  0  0  0  0  0
  -19.5960  -18.4120    8.3880 C   0  0  0  0  0  0  0  0  0  0  0  0
  -20.3120  -17.2320    8.2490 C   0  0  0  0  0  0  0  0  0  0  0  0
  -19.7190  -16.0230    8.5820 C   0  0  0  0  0  0  0  0  0  0  0  0
  -15.4080  -10.7340   10.1300 C   0  0  0  0  0  0  0  0  0  0  0  0
  -16.4030  -10.3250    9.2180 C   0  0  0  0  0  0  0  0  0  0  0  0
  -17.3260  -11.2420    8.7130 C   0  0  0  0  0  0  0  0  0  0  0  0
  -15.3580  -12.0760   10.5580 C   0  0  0  0  0  0  0  0  0  0  0  0
  -16.2900  -12.9650   10.0380 C   0  0  0  0  0  0  0  0  0  0  0  0
  -17.2530  -12.5480    9.1340 C   0  0  0  0  0  0  0  0  0  0  0  0
  -18.1320  -13.5750    8.7270 O   0  0  0  0  0  0  0  0  0  0  0  0
  -17.7650  -14.7460    9.3480 C   0  0  0  0  0  0  0  0  0  0  0  0
  -16.5990  -14.4110   10.2110 C   0  0  0  0  0  0  0  0  0  0  0  0
  -15.7860  -15.3060   11.0950 C   0  0  0  0  0  0  0  0  0  0  0  0
  -14.5900  -15.3970   10.8810 O   0  0  0  0  0  0  0  0  0  0  0  0
  -16.3400  -16.0160   12.0780 N   0  0  0  0  0  0  0  0  0  0  0  0
  -15.6070  -16.9150   12.9650 C   0  0  0  0  0  0  0  0  0  0  0  0
  -16.5250   -9.0050    8.6980 N   0  0  0  0  0  0  0  0  0  0  0  0
  -15.9290   -8.7640    7.3020 S   0  0  1  0  0  6  0  0  0  0  0  0
  -15.1660   -7.5600    7.2420 O   0  0  0  0  0  0  0  0  0  0  0  0
  -15.0750   -9.8250    6.8270 O   0  0  0  0  0  0  0  0  0  0  0  0
  -17.2130   -8.6880    6.2330 C   0  0  0  0  0  0  0  0  0  0  0  0
  -20.1480  -19.6000    8.0610 F   0  0  0  0  0  0  0  0  0  0  0  0
  -17.2530   -7.9290    9.3200 C   0  0  0  0  0  0  0  0  0  0  0  0
  -17.5750   -8.2540   10.7640 C   0  0  0  0  0  0  0  0  0  0  0  0
  -18.0160   -7.0550   11.3900 O   0  0  0  0  0  0  0  0  0  0  0  0
  -14.1541   -8.6378   12.6369 H   0  0  0  0  0  0  0  0  0  0  0  0
  -14.8309   -9.9807   13.0334 H   0  0  0  0  0  0  0  0  0  0  0  0
  -14.6859   -9.0240    9.8261 H   0  0  0  0  0  0  0  0  0  0  0  0
  -12.9064  -11.2553   11.3360 H   0  0  0  0  0  0  0  0  0  0  0  0
  -12.0826   -9.9470   11.1551 H   0  0  0  0  0  0  0  0  0  0  0  0
  -16.6325  -17.1702    9.4977 H   0  0  0  0  0  0  0  0  0  0  0  0
  -17.7197  -19.3370    8.9257 H   0  0  0  0  0  0  0  0  0  0  0  0
  -21.3466  -17.2550    7.8760 H   0  0  0  0  0  0  0  0  0  0  0  0
  -20.2689  -15.0783    8.4586 H   0  0  0  0  0  0  0  0  0  0  0  0
  -18.0955  -10.9260    7.9933 H   0  0  0  0  0  0  0  0  0  0  0  0
  -14.6019  -12.4100   11.2837 H   0  0  0  0  0  0  0  0  0  0  0  0
  -17.3558  -15.9240   12.2218 H   0  0  0  0  0  0  0  0  0  0  0  0
  -15.8210  -16.6525   14.0116 H   0  0  0  0  0  0  0  0  0  0  0  0
  -15.9200  -17.9524   12.7758 H   0  0  0  0  0  0  0  0  0  0  0  0
  -14.5278  -16.8173   12.7758 H   0  0  0  0  0  0  0  0  0  0  0  0
  -18.1562   -8.6322    6.7962 H   0  0  0  0  0  0  0  0  0  0  0  0
  -17.1106   -7.7943    5.5998 H   0  0  0  0  0  0  0  0  0  0  0  0
  -17.2167   -9.5875    5.5998 H   0  0  0  0  0  0  0  0  0  0  0  0
  -16.6428   -7.0144    9.2847 H   0  0  0  0  0  0  0  0  0  0  0  0
  -18.1973   -7.7840    8.7748 H   0  0  0  0  0  0  0  0  0  0  0  0
  -18.3691   -9.0138   10.8087 H   0  0  0  0  0  0  0  0  0  0  0  0
  -16.6865   -8.6515   11.2765 H   0  0  0  0  0  0  0  0  0  0  0  0
  -17.9765   -7.1623   12.3734 H   0  0  0  0  0  0  0  0  0  0  0  0
  2  1  1  0
  3  2  1  0
  3  1  1  0
  5  4  2  0
  6  5  1  0
  7  6  2  0
  8  7  1  0
  9  8  2  0
  9  4  1  0
 10  2  1  0
 11 10  2  0
 12 11  1  0
 13 10  1  0
 14 13  2  0
 15 12  2  0
 15 14  1  0
 16 15  1  0
 17 16  1  0
 17  4  1  0
 18 17  2  0
 18 14  1  0
 19 18  1  0
 20 19  2  0
 21 19  1  0
 22 21  1  0
 23 11  1  0
 24 23  1  1
 25 24  2  0
 26 24  2  0
 27 24  1  0
 28  7  1  0
 29 23  1  0
 30 29  1  0
 31 30  1  0
  1 32  1  0
  1 33  1  0
  2 34  1  6
  3 35  1  0
  3 36  1  0
  5 37  1  0
  6 38  1  0
  8 39  1  0
  9 40  1  0
 12 41  1  0
 13 42  1  0
 21 43  1  0
 22 44  1  0
 22 45  1  0
 22 46  1  0
 27 47  1  0
 27 48  1  0
 27 49  1  0
 29 50  1  0
 29 51  1  0
 30 52  1  0
 30 53  1  0
 31 54  1  0
M  END
>  <pdb_id>  (305) 
3fql

$$$$
6pl1_OOJ
     RDKit          3D

 48 51  0  0  0  0  0  0  0  0999 V2000
    0.0200   10.3380   13.3390 C   0  0  2  0  0  0  0  0  0  0  0  0
   -1.3600   10.7570   12.8910 C   0  0  0  0  0  0  0  0  0  0  0  0
   -2.4150   10.6910   13.7890 C   0  0  0  0  0  0  0  0  0  0  0  0
   -3.6920   11.0930   13.3850 C   0  0  0  0  0  0  0  0  0  0  0  0
   -3.9010   11.5600   12.0840 C   0  0  0  0  0  0  0  0  0  0  0  0
   -4.8460   11.4260   15.5260 C   0  0  0  0  0  0  0  0  0  0  0  0
   -6.3020   11.7110   17.4510 C   0  0  0  0  0  0  0  0  0  0  0  0
   -6.6340   12.2230   19.8480 C   0  0  0  0  0  0  0  0  0  0  0  0
   -5.5450   11.7740   23.8570 C   0  0  0  0  0  0  0  0  0  0  0  0
   -5.8070   13.0330   24.2130 N   0  0  0  0  0  0  0  0  0  0  0  0
   -5.5750   13.4930   25.4520 C   0  0  0  0  0  0  0  0  0  0  0  0
   -5.8810   14.8340   25.7810 C   0  0  0  0  0  0  0  0  0  0  0  0
   -4.7870   14.9130   29.4140 C   0  0  0  0  0  0  0  0  0  0  0  0
   -4.7760   11.3760   26.0910 C   0  0  0  0  0  0  0  0  0  0  0  0
   -5.0250   10.8990   24.7950 C   0  0  0  0  0  0  0  0  0  0  0  0
    0.8800   10.2370   12.2540 F   0  0  0  0  0  0  0  0  0  0  0  0
    0.0260    9.1310   14.0350 F   0  0  0  0  0  0  0  0  0  0  0  0
    0.5030   11.3250   14.1900 F   0  0  0  0  0  0  0  0  0  0  0  0
   -2.8450   11.6280   11.1980 C   0  0  0  0  0  0  0  0  0  0  0  0
   -1.5800   11.2330   11.6000 C   0  0  0  0  0  0  0  0  0  0  0  0
   -4.8180   11.0640   14.2160 N   0  0  0  0  0  0  0  0  0  0  0  0
   -3.8540   11.7880   16.1400 O   0  0  0  0  0  0  0  0  0  0  0  0
   -6.0450   11.3620   16.1340 N   0  0  0  0  0  0  0  0  0  0  0  0
   -7.3720   12.3710   17.7380 N   0  0  0  0  0  0  0  0  0  0  0  0
   -7.5480   12.6610   19.0560 N   0  0  0  0  0  0  0  0  0  0  0  0
   -6.7680   12.5400   21.5730 S   0  0  0  0  0  0  0  0  0  0  0  0
   -5.8030   11.2840   22.4480 C   0  0  0  0  0  0  0  0  0  0  0  0
   -5.6350   15.2890   27.0510 C   0  0  0  0  0  0  0  0  0  0  0  0
   -5.0740   14.4240   28.0140 C   0  0  0  0  0  0  0  0  0  0  0  0
   -4.7840   13.1440   27.6780 C   0  0  0  0  0  0  0  0  0  0  0  0
   -5.0370   12.6670   26.4140 N   0  0  0  0  0  0  0  0  0  0  0  0
   -4.3070   10.6210   26.9040 O   0  0  0  0  0  0  0  0  0  0  0  0
   -5.3810   11.3650   18.9220 S   0  0  0  0  0  0  0  0  0  0  0  0
   -2.2482   10.3247   14.8127 H   0  0  0  0  0  0  0  0  0  0  0  0
   -4.9066   11.8731   11.7666 H   0  0  0  0  0  0  0  0  0  0  0  0
   -6.3126   15.5062   25.0247 H   0  0  0  0  0  0  0  0  0  0  0  0
   -5.2039   14.2027   30.1432 H   0  0  0  0  0  0  0  0  0  0  0  0
   -3.6995   14.9916   29.5592 H   0  0  0  0  0  0  0  0  0  0  0  0
   -5.2486   15.9008   29.5592 H   0  0  0  0  0  0  0  0  0  0  0  0
   -4.8117    9.8528   24.5304 H   0  0  0  0  0  0  0  0  0  0  0  0
   -3.0079   11.9954   10.1740 H   0  0  0  0  0  0  0  0  0  0  0  0
   -0.7399   11.2957   10.8926 H   0  0  0  0  0  0  0  0  0  0  0  0
   -5.7022   10.7402   13.7986 H   0  0  0  0  0  0  0  0  0  0  0  0
   -6.8400   11.0248   15.5727 H   0  0  0  0  0  0  0  0  0  0  0  0
   -6.3657   10.3394   22.4806 H   0  0  0  0  0  0  0  0  0  0  0  0
   -4.8493   11.1106   21.9280 H   0  0  0  0  0  0  0  0  0  0  0  0
   -5.8751   16.3285   27.3189 H   0  0  0  0  0  0  0  0  0  0  0  0
   -4.3386   12.4753   28.4293 H   0  0  0  0  0  0  0  0  0  0  0  0
  2  1  1  0
  3  2  2  0
  4  3  1  0
  5  4  2  0
 10  9  1  0
 11 10  2  0
 12 11  1  0
 15  9  2  0
 15 14  1  0
  1 16  1  6
 17  1  1  0
 18  1  1  0
 19  5  1  0
 20  2  1  0
 20 19  2  0
 21  6  1  0
 21  4  1  0
 22  6  2  0
 23  7  1  0
 23  6  1  0
 24  7  2  0
 25 24  1  0
 25  8  2  0
 26  8  1  0
 27 26  1  0
 27  9  1  0
 28 12  2  0
 29 28  1  0
 29 13  1  0
 30 29  2  0
 31 11  1  0
 31 14  1  0
 31 30  1  0
 32 14  2  0
 33  8  1  0
 33  7  1  0
  3 34  1  0
  5 35  1  0
 12 36  1  0
 13 37  1  0
 13 38  1  0
 13 39  1  0
 15 40  1  0
 19 41  1  0
 20 42  1  0
 21 43  1  0
 23 44  1  0
 27 45  1  0
 27 46  1  0
 28 47  1  0
 30 48  1  0
M  END
>  <pdb_id>  (1080) 
6pl1

$$$$
2xbw_455
     RDKit          3D

 57 60  0  0  0  0  0  0  0  0999 V2000
    9.2600   70.4290    3.4600 S   0  0  1  0  0  6  0  0  0  0  0  0
    9.3870   66.4710    3.2300 C   0  0  1  0  0  0  0  0  0  0  0  0
   10.1820   66.7570    4.4920 C   0  0  1  0  0  0  0  0  0  0  0  0
    9.6160   68.7380    3.3110 N   0  0  0  0  0  0  0  0  0  0  0  0
    8.4580   65.3450    3.3880 C   0  0  0  0  0  0  0  0  0  0  0  0
    6.8250   58.9940    3.3950 N   0  0  0  0  0  0  0  0  0  0  0  0
   11.4680   66.0080    4.4820 C   0  0  0  0  0  0  0  0  0  0  0  0
   10.3720   68.3190    4.5000 C   0  0  0  0  0  0  0  0  0  0  0  0
    8.6050   67.7520    2.9760 C   0  0  0  0  0  0  0  0  0  0  0  0
    5.7050   58.6230    2.5810 C   0  0  0  0  0  0  0  0  0  0  0  0
    7.3050   60.3490    3.3010 C   0  0  0  0  0  0  0  0  0  0  0  0
    9.0420   64.1820    3.0350 N   0  0  0  0  0  0  0  0  0  0  0  0
    8.1220   60.6790    2.2470 C   0  0  0  0  0  0  0  0  0  0  0  0
   12.1630   66.0350    5.7030 N   0  0  0  0  0  0  0  0  0  0  0  0
    8.4100   62.8870    3.2730 C   0  0  0  0  0  0  0  0  0  0  0  0
    8.6600   61.9690    2.2760 C   0  0  0  0  0  0  0  0  0  0  0  0
    8.2170   70.5090    4.4670 O   0  0  0  0  0  0  0  0  0  0  0  0
   10.4920   71.0500    3.9080 O   0  0  0  0  0  0  0  0  0  0  0  0
    7.4230   58.0760    4.3050 C   0  0  0  0  0  0  0  0  0  0  0  0
    7.3060   65.4260    3.8870 O   0  0  0  0  0  0  0  0  0  0  0  0
   11.8150   65.2590    3.5680 O   0  0  0  0  0  0  0  0  0  0  0  0
    5.3160   57.2230    2.5810 C   0  0  0  0  0  0  0  0  0  0  0  0
    5.3260   59.5080    1.7610 O   0  0  0  0  0  0  0  0  0  0  0  0
    6.9790   61.2430    4.3190 C   0  0  0  0  0  0  0  0  0  0  0  0
    7.5390   62.5480    4.2950 C   0  0  0  0  0  0  0  0  0  0  0  0
    6.8680   56.8400    4.4250 C   0  0  0  0  0  0  0  0  0  0  0  0
    5.8310   56.3840    3.5330 C   0  0  0  0  0  0  0  0  0  0  0  0
   13.3530   65.3200    6.0680 C   0  0  0  0  0  0  0  0  0  0  0  0
    8.7910   70.8880    2.0050 N   0  0  0  0  0  0  0  0  0  0  0  0
    9.4220   62.3630    1.2390 F   0  0  0  0  0  0  0  0  0  0  0  0
   15.4810   63.8500    6.9430 C   0  0  0  0  0  0  0  0  0  0  0  0
   16.6960   62.7040    7.4940 Cl  0  0  0  0  0  0  0  0  0  0  0  0
   13.6670   65.3420    7.4150 C   0  0  0  0  0  0  0  0  0  0  0  0
   14.0410   64.5420    5.1180 C   0  0  0  0  0  0  0  0  0  0  0  0
   15.1370   63.7790    5.5690 C   0  0  0  0  0  0  0  0  0  0  0  0
   14.7550   64.5910    7.8880 C   0  0  0  0  0  0  0  0  0  0  0  0
   10.0549   66.1890    2.4027 H   0  0  0  0  0  0  0  0  0  0  0  0
    9.6737   66.4253    5.4094 H   0  0  0  0  0  0  0  0  0  0  0  0
   11.4343   68.5906    4.4117 H   0  0  0  0  0  0  0  0  0  0  0  0
   10.0285   68.7976    5.4290 H   0  0  0  0  0  0  0  0  0  0  0  0
    7.7259   67.8301    3.6325 H   0  0  0  0  0  0  0  0  0  0  0  0
    8.1863   67.8449    1.9631 H   0  0  0  0  0  0  0  0  0  0  0  0
    9.9664   64.2078    2.5815 H   0  0  0  0  0  0  0  0  0  0  0  0
    8.3391   59.9730    1.4319 H   0  0  0  0  0  0  0  0  0  0  0  0
   11.7672   66.6473    6.4305 H   0  0  0  0  0  0  0  0  0  0  0  0
    8.3082   58.3584    4.8938 H   0  0  0  0  0  0  0  0  0  0  0  0
    4.6151   56.8410    1.8242 H   0  0  0  0  0  0  0  0  0  0  0  0
    6.2982   60.9425    5.1290 H   0  0  0  0  0  0  0  0  0  0  0  0
    7.2846   63.2788    5.0768 H   0  0  0  0  0  0  0  0  0  0  0  0
    7.2197   56.1705    5.2238 H   0  0  0  0  0  0  0  0  0  0  0  0
    5.4510   55.3552    3.6177 H   0  0  0  0  0  0  0  0  0  0  0  0
    8.0575   71.6059    2.0913 H   0  0  0  0  0  0  0  0  0  0  0  0
    9.5947   71.2782    1.4924 H   0  0  0  0  0  0  0  0  0  0  0  0
   13.0671   65.9451    8.1124 H   0  0  0  0  0  0  0  0  0  0  0  0
   13.7344   64.5299    4.0617 H   0  0  0  0  0  0  0  0  0  0  0  0
   15.7094   63.1463    4.8747 H   0  0  0  0  0  0  0  0  0  0  0  0
   15.0267   64.5838    8.9539 H   0  0  0  0  0  0  0  0  0  0  0  0
  3  2  1  0
  4  1  1  0
  5  2  1  0
  7  3  1  0
  8  4  1  0
  8  3  1  0
  9  4  1  0
  9  2  1  0
 10  6  1  0
 11  6  1  0
 12  5  1  0
 13 11  2  0
 14  7  1  0
 15 12  1  0
 16 15  2  0
 16 13  1  0
 17  1  2  0
 18  1  2  0
 19  6  1  0
 20  5  2  0
 21  7  2  0
 22 10  1  0
 23 10  2  0
 24 11  1  0
 25 24  2  0
 25 15  1  0
 26 19  2  0
 27 22  2  0
 27 26  1  0
 28 14  1  0
  1 29  1  6
 30 16  1  0
 32 31  1  0
 33 28  1  0
 34 28  2  0
 35 34  1  0
 35 31  2  0
 36 33  2  0
 36 31  1  0
  2 37  1  6
  3 38  1  1
  8 39  1  0
  8 40  1  0
  9 41  1  0
  9 42  1  0
 12 43  1  0
 13 44  1  0
 14 45  1  0
 19 46  1  0
 22 47  1  0
 24 48  1  0
 25 49  1  0
 26 50  1  0
 27 51  1  0
 29 52  1  0
 29 53  1  0
 33 54  1  0
 34 55  1  0
 35 56  1  0
 36 57  1  0
M  END
>  <pdb_id>  (230) 
2xbw

$$$$
6cn5_F7M
     RDKit          3D

 66 70  0  0  0  0  0  0  0  0999 V2000
   -6.4770   31.8310   -1.9120 C   0  0  0  0  0  0  0  0  0  0  0  0
   -6.3630   31.1930   -4.4160 C   0  0  1  0  0  0  0  0  0  0  0  0
   -7.7020   29.9680   -2.4300 C   0  0  0  0  0  0  0  0  0  0  0  0
   -6.7790   31.0100   -2.9590 C   0  0  0  0  0  0  0  0  0  0  0  0
   -8.4000   28.8740   -2.9480 C   0  0  0  0  0  0  0  0  0  0  0  0
   -6.6420   34.2360   -7.1660 C   0  0  0  0  0  0  0  0  0  0  0  0
   -5.9220   35.6020   -7.2960 C   0  0  1  0  0  0  0  0  0  0  0  0
   -7.7800   34.3090   -7.5790 O   0  0  0  0  0  0  0  0  0  0  0  0
  -11.1840   26.9320   -2.7970 C   0  0  0  0  0  0  0  0  0  0  0  0
  -11.9500   27.7860   -2.3730 O   0  0  0  0  0  0  0  0  0  0  0  0
   -7.8610   30.2370   -1.0610 C   0  0  0  0  0  0  0  0  0  0  0  0
   -7.0880   31.3440   -0.7780 N   0  0  0  0  0  0  0  0  0  0  0  0
   -8.6790   29.4260   -0.2410 C   0  0  0  0  0  0  0  0  0  0  0  0
   -9.1880   28.0890   -2.1260 C   0  0  0  0  0  0  0  0  0  0  0  0
   -7.6580   31.5770   -5.2110 C   0  0  0  0  0  0  0  0  0  0  0  0
   -5.2650   32.2860   -4.5930 C   0  0  0  0  0  0  0  0  0  0  0  0
   -9.3220   28.3530   -0.7520 C   0  0  0  0  0  0  0  0  0  0  0  0
   -9.8320   26.9950   -2.6890 N   0  0  0  0  0  0  0  0  0  0  0  0
   -7.3390   31.9230   -6.7070 C   0  0  0  0  0  0  0  0  0  0  0  0
   -5.0120   32.6450   -6.0690 C   0  0  0  0  0  0  0  0  0  0  0  0
   -6.2960   33.0020   -6.6870 N   0  0  0  0  0  0  0  0  0  0  0  0
  -11.7560   25.7770   -3.4450 C   0  0  0  0  0  0  0  0  0  0  0  0
  -11.0620   25.1430   -4.3870 N   0  0  0  0  0  0  0  0  0  0  0  0
  -11.5910   24.0940   -5.0460 C   0  0  0  0  0  0  0  0  0  0  0  0
  -12.8750   23.6210   -4.7580 C   0  0  0  0  0  0  0  0  0  0  0  0
  -13.6200   24.2870   -3.7340 C   0  0  0  0  0  0  0  0  0  0  0  0
  -13.0520   25.3800   -3.0540 C   0  0  0  0  0  0  0  0  0  0  0  0
  -14.9080   23.8810   -3.2620 C   0  0  0  0  0  0  0  0  0  0  0  0
  -15.9180   23.5480   -2.8760 N   0  0  0  0  0  0  0  0  0  0  0  0
   -5.0690   36.0710   -6.1460 C   0  0  0  0  0  0  0  0  0  0  0  0
   -4.4740   37.4820   -6.3890 C   0  0  0  0  0  0  0  0  0  0  0  0
   -4.2320   37.9820   -7.8440 C   0  0  0  0  0  0  0  0  0  0  0  0
   -4.9140   37.2240   -8.9860 C   0  0  0  0  0  0  0  0  0  0  0  0
   -5.2510   35.7830   -8.6710 C   0  0  0  0  0  0  0  0  0  0  0  0
   -7.0240   31.8960    0.5900 C   0  0  0  0  0  0  0  0  0  0  0  0
   -5.8493   32.7328   -1.9649 H   0  0  0  0  0  0  0  0  0  0  0  0
   -5.9175   30.2606   -4.7929 H   0  0  0  0  0  0  0  0  0  0  0  0
   -8.3221   28.6350   -4.0189 H   0  0  0  0  0  0  0  0  0  0  0  0
   -6.7613   36.3095   -7.2252 H   0  0  0  0  0  0  0  0  0  0  0  0
   -8.7933   29.6714    0.8252 H   0  0  0  0  0  0  0  0  0  0  0  0
   -8.3582   30.7291   -5.1827 H   0  0  0  0  0  0  0  0  0  0  0  0
   -8.0984   32.4679   -4.7394 H   0  0  0  0  0  0  0  0  0  0  0  0
   -5.5840   33.1940   -4.0603 H   0  0  0  0  0  0  0  0  0  0  0  0
   -4.3268   31.8817   -4.1852 H   0  0  0  0  0  0  0  0  0  0  0  0
   -9.9343   27.7032   -0.1095 H   0  0  0  0  0  0  0  0  0  0  0  0
   -9.2665   26.2069   -3.0354 H   0  0  0  0  0  0  0  0  0  0  0  0
   -6.9547   31.0338   -7.2281 H   0  0  0  0  0  0  0  0  0  0  0  0
   -8.2431   32.2563   -7.2375 H   0  0  0  0  0  0  0  0  0  0  0  0
   -4.3204   33.4982   -6.1304 H   0  0  0  0  0  0  0  0  0  0  0  0
   -4.5652   31.7882   -6.5947 H   0  0  0  0  0  0  0  0  0  0  0  0
  -10.9990   23.5978   -5.8291 H   0  0  0  0  0  0  0  0  0  0  0  0
  -13.2990   22.7638   -5.3016 H   0  0  0  0  0  0  0  0  0  0  0  0
  -13.5949   25.9022   -2.2524 H   0  0  0  0  0  0  0  0  0  0  0  0
   -5.6870   36.1000   -5.2365 H   0  0  0  0  0  0  0  0  0  0  0  0
   -4.2305   35.3668   -6.0410 H   0  0  0  0  0  0  0  0  0  0  0  0
   -5.1578   38.2015   -5.9150 H   0  0  0  0  0  0  0  0  0  0  0  0
   -3.4580   37.4042   -5.9747 H   0  0  0  0  0  0  0  0  0  0  0  0
   -4.5756   39.0258   -7.8928 H   0  0  0  0  0  0  0  0  0  0  0  0
   -3.1564   37.8256   -8.0135 H   0  0  0  0  0  0  0  0  0  0  0  0
   -5.8481   37.7482   -9.2364 H   0  0  0  0  0  0  0  0  0  0  0  0
   -4.1958   37.2019   -9.8189 H   0  0  0  0  0  0  0  0  0  0  0  0
   -4.3212   35.1954   -8.6861 H   0  0  0  0  0  0  0  0  0  0  0  0
   -5.9685   35.4418   -9.4318 H   0  0  0  0  0  0  0  0  0  0  0  0
   -7.1188   31.0786    1.3200 H   0  0  0  0  0  0  0  0  0  0  0  0
   -6.0606   32.4069    0.7346 H   0  0  0  0  0  0  0  0  0  0  0  0
   -7.8449   32.6137    0.7346 H   0  0  0  0  0  0  0  0  0  0  0  0
  4  3  1  0
  4  2  1  0
  4  1  2  0
  5  3  2  0
  7  6  1  0
  8  6  2  0
 10  9  2  0
 11  3  1  0
 12 11  1  0
 12  1  1  0
 13 11  2  0
 14  5  1  0
 15  2  1  0
 16  2  1  0
 17 14  2  0
 17 13  1  0
 18  9  1  0
 18 14  1  0
 19 15  1  0
 20 16  1  0
 21 19  1  0
 21  6  1  0
 21 20  1  0
 22  9  1  0
 23 22  2  0
 24 23  1  0
 25 24  2  0
 26 25  1  0
 27 26  2  0
 27 22  1  0
 28 26  1  0
 29 28  3  0
 30  7  1  0
 31 30  1  0
 32 31  1  0
 33 32  1  0
 34  7  1  0
 34 33  1  0
 35 12  1  0
  1 36  1  0
  2 37  1  6
  5 38  1  0
  7 39  1  6
 13 40  1  0
 15 41  1  0
 15 42  1  0
 16 43  1  0
 16 44  1  0
 17 45  1  0
 18 46  1  0
 19 47  1  0
 19 48  1  0
 20 49  1  0
 20 50  1  0
 24 51  1  0
 25 52  1  0
 27 53  1  0
 30 54  1  0
 30 55  1  0
 31 56  1  0
 31 57  1  0
 32 58  1  0
 32 59  1  0
 33 60  1  0
 33 61  1  0
 34 62  1  0
 34 63  1  0
 35 64  1  0
 35 65  1  0
 35 66  1  0
M  END
>  <pdb_id>  (954) 
6cn5

$$$$
2yix_YIX
     RDKit          3D

 49 51  0  0  0  0  0  0  0  0999 V2000
    8.5280   17.2300   36.3980 C   0  0  0  0  0  0  0  0  0  0  0  0
    7.1460   16.5010   36.3100 C   0  0  0  0  0  0  0  0  0  0  0  0
    6.9180   16.2210   34.8940 N   0  0  0  0  0  0  0  0  0  0  0  0
    5.9700   15.3700   34.3970 C   0  0  0  0  0  0  0  0  0  0  0  0
    5.2290   14.7830   35.1330 O   0  0  0  0  0  0  0  0  0  0  0  0
    5.8650   15.2070   33.0480 N   0  0  0  0  0  0  0  0  0  0  0  0
    4.8920   14.3470   32.3640 C   0  0  0  0  0  0  0  0  0  0  0  0
    5.4110   13.4900   31.1850 C   0  0  0  0  0  0  0  0  0  0  0  0
    6.8000   13.1650   31.0270 C   0  0  0  0  0  0  0  0  0  0  0  0
    7.2070   12.3470   29.9600 C   0  0  0  0  0  0  0  0  0  0  0  0
    6.2480   11.8430   29.0460 C   0  0  0  0  0  0  0  0  0  0  0  0
    4.8890   12.1440   29.1880 C   0  0  0  0  0  0  0  0  0  0  0  0
    4.4470   12.9680   30.2620 C   0  0  0  0  0  0  0  0  0  0  0  0
    2.6740   13.3220   30.4940 S   0  0  0  0  0  0  0  0  0  0  0  0
    2.1030   11.7270   30.9540 C   0  0  0  0  0  0  0  0  0  0  0  0
    2.9500   10.7500   31.6200 C   0  0  0  0  0  0  0  0  0  0  0  0
    2.4100    9.4980   31.9660 C   0  0  0  0  0  0  0  0  0  0  0  0
    1.0220    9.1850   31.6420 C   0  0  0  0  0  0  0  0  0  0  0  0
    0.2130    8.1030   31.8050 N   0  0  0  0  0  0  0  0  0  0  0  0
   -0.9520    8.3870   31.3210 N   0  0  0  0  0  0  0  0  0  0  0  0
   -0.9800    9.6140   30.8150 C   0  0  0  0  0  0  0  0  0  0  0  0
   -2.1310   10.3600   30.1590 C   0  0  1  0  0  0  0  0  0  0  0  0
   -2.3640    9.9260   28.7240 C   0  0  0  0  0  0  0  0  0  0  0  0
   -3.4370   10.1460   30.8860 C   0  0  0  0  0  0  0  0  0  0  0  0
    0.2480   10.1580   30.9960 N   0  0  0  0  0  0  0  0  0  0  0  0
    0.7710   11.4140   30.6720 C   0  0  0  0  0  0  0  0  0  0  0  0
    8.8002   17.3736   37.4541 H   0  0  0  0  0  0  0  0  0  0  0  0
    9.2966   16.6200   35.9009 H   0  0  0  0  0  0  0  0  0  0  0  0
    8.4585   18.2088   35.9009 H   0  0  0  0  0  0  0  0  0  0  0  0
    7.1732   15.5630   36.8839 H   0  0  0  0  0  0  0  0  0  0  0  0
    6.3400   17.1212   36.7292 H   0  0  0  0  0  0  0  0  0  0  0  0
    7.5215   16.7048   34.2138 H   0  0  0  0  0  0  0  0  0  0  0  0
    6.5254   15.7326   32.4576 H   0  0  0  0  0  0  0  0  0  0  0  0
    4.4736   13.6594   33.1138 H   0  0  0  0  0  0  0  0  0  0  0  0
    4.1683   15.0415   31.9124 H   0  0  0  0  0  0  0  0  0  0  0  0
    7.5428   13.5549   31.7385 H   0  0  0  0  0  0  0  0  0  0  0  0
    8.2708   12.0974   29.8337 H   0  0  0  0  0  0  0  0  0  0  0  0
    6.5772   11.2054   28.2123 H   0  0  0  0  0  0  0  0  0  0  0  0
    4.1602   11.7431   28.4682 H   0  0  0  0  0  0  0  0  0  0  0  0
    3.9992   10.9871   31.8501 H   0  0  0  0  0  0  0  0  0  0  0  0
    3.0349    8.7539   32.4815 H   0  0  0  0  0  0  0  0  0  0  0  0
   -1.8300   11.4173   30.1969 H   0  0  0  0  0  0  0  0  0  0  0  0
   -2.8843    8.9569   28.7139 H   0  0  0  0  0  0  0  0  0  0  0  0
   -2.9796   10.6781   28.2088 H   0  0  0  0  0  0  0  0  0  0  0  0
   -1.3970    9.8284   28.2088 H   0  0  0  0  0  0  0  0  0  0  0  0
   -3.2614   10.1748   31.9715 H   0  0  0  0  0  0  0  0  0  0  0  0
   -4.1458   10.9400   30.6081 H   0  0  0  0  0  0  0  0  0  0  0  0
   -3.8553    9.1673   30.6081 H   0  0  0  0  0  0  0  0  0  0  0  0
    0.1264   12.1637   30.1898 H   0  0  0  0  0  0  0  0  0  0  0  0
  2  1  1  0
  3  2  1  0
  4  3  1  0
  5  4  2  0
  6  4  1  0
  7  6  1  0
  8  7  1  0
  9  8  2  0
 10  9  1  0
 11 10  2  0
 12 11  1  0
 13 12  2  0
 13  8  1  0
 14 13  1  0
 15 14  1  0
 16 15  1  0
 17 16  2  0
 18 17  1  0
 19 18  2  0
 20 19  1  0
 21 20  2  0
 22 21  1  0
 23 22  1  0
 24 22  1  0
 25 21  1  0
 25 18  1  0
 26 25  1  0
 26 15  2  0
  1 27  1  0
  1 28  1  0
  1 29  1  0
  2 30  1  0
  2 31  1  0
  3 32  1  0
  6 33  1  0
  7 34  1  0
  7 35  1  0
  9 36  1  0
 10 37  1  0
 11 38  1  0
 12 39  1  0
 16 40  1  0
 17 41  1  0
 22 42  1  6
 23 43  1  0
 23 44  1  0
 23 45  1  0
 24 46  1  0
 24 47  1  0
 24 48  1  0
 26 49  1  0
M  END
>  <pdb_id>  (250) 
2yix

$$$$
4rj8_3QS
     RDKit          3D

 57 61  0  0  0  0  0  0  0  0999 V2000
  -51.8500   -2.5060  -28.1050 C   0  0  0  0  0  0  0  0  0  0  0  0
  -53.0670   -1.6340  -27.7620 C   0  0  0  0  0  0  0  0  0  0  0  0
  -56.3870    0.4030  -26.4600 C   0  0  0  0  0  0  0  0  0  0  0  0
  -52.1570   -1.3780  -25.3740 C   0  0  0  0  0  0  0  0  0  0  0  0
  -50.8320   -2.0140  -25.8300 C   0  0  0  0  0  0  0  0  0  0  0  0
  -54.3220   -0.5820  -25.9920 C   0  0  0  0  0  0  0  0  0  0  0  0
  -56.2340    1.2340  -25.3540 C   0  0  0  0  0  0  0  0  0  0  0  0
  -55.0760    1.1070  -24.5710 C   0  0  0  0  0  0  0  0  0  0  0  0
  -50.6530   -1.9060  -27.3520 C   0  0  1  0  0  0  0  0  0  0  0  0
  -48.9370   -3.6880  -27.6630 C   0  0  0  0  0  0  0  0  0  0  0  0
  -49.3620   -2.3200  -27.8220 O   0  0  0  0  0  0  0  0  0  0  0  0
  -53.3310   -1.5260  -26.2920 N   0  0  0  0  0  0  0  0  0  0  0  0
  -55.4300   -0.4750  -26.7380 N   0  0  0  0  0  0  0  0  0  0  0  0
  -54.1640    0.2100  -24.9300 N   0  0  0  0  0  0  0  0  0  0  0  0
  -54.8730    1.9400  -23.4810 N   0  0  0  0  0  0  0  0  0  0  0  0
  -54.2190    1.6270  -22.2810 C   0  0  0  0  0  0  0  0  0  0  0  0
  -53.2060    0.6660  -22.1940 C   0  0  0  0  0  0  0  0  0  0  0  0
  -52.5990    0.4120  -20.9530 C   0  0  0  0  0  0  0  0  0  0  0  0
  -53.0180    1.1890  -19.8360 C   0  0  0  0  0  0  0  0  0  0  0  0
  -52.2240    0.7390  -18.6910 C   0  0  0  0  0  0  0  0  0  0  0  0
  -51.4320   -0.2390  -19.1430 C   0  0  0  0  0  0  0  0  0  0  0  0
  -51.6300   -0.4530  -20.4980 N   0  0  0  0  0  0  0  0  0  0  0  0
  -50.9100   -1.4390  -21.3380 C   0  0  1  0  0  0  0  0  0  0  0  0
  -49.9180   -0.7260  -22.2730 C   0  0  0  0  0  0  0  0  0  0  0  0
  -48.6880   -0.4610  -21.3770 C   0  0  0  0  0  0  0  0  0  0  0  0
  -48.5750   -1.7690  -20.5540 C   0  0  0  0  0  0  0  0  0  0  0  0
  -49.9960   -2.3850  -20.5340 C   0  0  0  0  0  0  0  0  0  0  0  0
  -54.0040    2.1600  -20.0210 C   0  0  0  0  0  0  0  0  0  0  0  0
  -54.5730    2.3320  -21.2050 N   0  0  0  0  0  0  0  0  0  0  0  0
  -52.0221   -3.5425  -27.7795 H   0  0  0  0  0  0  0  0  0  0  0  0
  -51.6678   -2.5232  -29.1897 H   0  0  0  0  0  0  0  0  0  0  0  0
  -52.8938   -0.6231  -28.1595 H   0  0  0  0  0  0  0  0  0  0  0  0
  -53.9469   -2.1156  -28.2135 H   0  0  0  0  0  0  0  0  0  0  0  0
  -57.2843    0.4722  -27.0925 H   0  0  0  0  0  0  0  0  0  0  0  0
  -52.4295   -1.8327  -24.4101 H   0  0  0  0  0  0  0  0  0  0  0  0
  -51.9578   -0.2969  -25.3354 H   0  0  0  0  0  0  0  0  0  0  0  0
  -49.9974   -1.4969  -25.3339 H   0  0  0  0  0  0  0  0  0  0  0  0
  -50.8479   -3.0797  -25.5580 H   0  0  0  0  0  0  0  0  0  0  0  0
  -57.0053    1.9756  -25.0986 H   0  0  0  0  0  0  0  0  0  0  0  0
  -50.6587   -0.8342  -27.5994 H   0  0  0  0  0  0  0  0  0  0  0  0
  -48.8628   -3.9268  -26.5918 H   0  0  0  0  0  0  0  0  0  0  0  0
  -49.6696   -4.3571  -28.1379 H   0  0  0  0  0  0  0  0  0  0  0  0
  -47.9542   -3.8242  -28.1379 H   0  0  0  0  0  0  0  0  0  0  0  0
  -55.2448    2.8971  -23.5622 H   0  0  0  0  0  0  0  0  0  0  0  0
  -52.8874    0.1137  -23.0903 H   0  0  0  0  0  0  0  0  0  0  0  0
  -52.2699    1.1282  -17.6632 H   0  0  0  0  0  0  0  0  0  0  0  0
  -50.7179   -0.7995  -18.5217 H   0  0  0  0  0  0  0  0  0  0  0  0
  -51.7127   -1.9890  -21.8510 H   0  0  0  0  0  0  0  0  0  0  0  0
  -49.6508   -1.3695  -23.1242 H   0  0  0  0  0  0  0  0  0  0  0  0
  -50.3324    0.1954  -22.7081 H   0  0  0  0  0  0  0  0  0  0  0  0
  -47.7850   -0.2947  -21.9827 H   0  0  0  0  0  0  0  0  0  0  0  0
  -48.7896    0.4390  -20.7528 H   0  0  0  0  0  0  0  0  0  0  0  0
  -47.8653   -2.4607  -21.0312 H   0  0  0  0  0  0  0  0  0  0  0  0
  -48.2061   -1.5740  -19.5362 H   0  0  0  0  0  0  0  0  0  0  0  0
  -50.3568   -2.4685  -19.4982 H   0  0  0  0  0  0  0  0  0  0  0  0
  -49.9923   -3.3936  -20.9731 H   0  0  0  0  0  0  0  0  0  0  0  0
  -54.3121    2.7898  -19.1734 H   0  0  0  0  0  0  0  0  0  0  0  0
  2  1  1  0
  5  4  1  0
  7  3  2  0
  8  7  1  0
  9  1  1  0
  9  5  1  0
 11  9  1  0
 11 10  1  0
 12  2  1  0
 12  6  1  0
 12  4  1  0
 13  3  1  0
 13  6  2  0
 14  8  2  0
 14  6  1  0
 15  8  1  0
 16 15  1  0
 17 16  2  0
 18 17  1  0
 19 18  2  0
 20 19  1  0
 21 20  2  0
 22 21  1  0
 22 18  1  0
 23 22  1  0
 24 23  1  0
 25 24  1  0
 26 25  1  0
 27 23  1  0
 27 26  1  0
 28 19  1  0
 29 16  1  0
 29 28  2  0
  1 30  1  0
  1 31  1  0
  2 32  1  0
  2 33  1  0
  3 34  1  0
  4 35  1  0
  4 36  1  0
  5 37  1  0
  5 38  1  0
  7 39  1  0
  9 40  1  1
 10 41  1  0
 10 42  1  0
 10 43  1  0
 15 44  1  0
 17 45  1  0
 20 46  1  0
 21 47  1  0
 23 48  1  6
 24 49  1  0
 24 50  1  0
 25 51  1  0
 25 52  1  0
 26 53  1  0
 26 54  1  0
 27 55  1  0
 27 56  1  0
 28 57  1  0
M  END
>  <pdb_id>  (621) 
4rj8

$$$$
3d83_GK6
     RDKit          3D

 65 69  0  0  0  0  0  0  0  0999 V2000
   46.2930   34.8180   30.9770 O   0  0  0  0  0  0  0  0  0  0  0  0
   46.0010   33.6850   30.5740 C   0  0  0  0  0  0  0  0  0  0  0  0
   46.7750   33.0420   29.6770 N   0  0  0  0  0  0  0  0  0  0  0  0
   47.9870   33.6210   29.0970 C   0  0  0  0  0  0  0  0  0  0  0  0
   49.0690   32.5610   28.8470 C   0  0  1  0  0  0  0  0  0  0  0  0
   50.4230   33.1260   29.2810 C   0  0  0  0  0  0  0  0  0  0  0  0
   49.7130   32.0970   30.1540 C   0  0  0  0  0  0  0  0  0  0  0  0
   44.7130   33.0050   31.0550 C   0  0  0  0  0  0  0  0  0  0  0  0
   44.3990   31.7120   30.6360 C   0  0  0  0  0  0  0  0  0  0  0  0
   43.2190   31.0710   31.0750 C   0  0  0  0  0  0  0  0  0  0  0  0
   43.8320   33.6670   31.9150 C   0  0  0  0  0  0  0  0  0  0  0  0
   42.6540   33.0280   32.3520 C   0  0  0  0  0  0  0  0  0  0  0  0
   42.3460   31.7220   31.9440 C   0  0  0  0  0  0  0  0  0  0  0  0
   41.1220   31.1280   32.3350 C   0  0  0  0  0  0  0  0  0  0  0  0
   39.9640   31.5260   31.6450 C   0  0  0  0  0  0  0  0  0  0  0  0
   40.0470   32.5660   30.5520 C   0  0  0  0  0  0  0  0  0  0  0  0
   40.9900   30.1500   33.3360 C   0  0  0  0  0  0  0  0  0  0  0  0
   39.7240   29.6130   33.6760 C   0  0  0  0  0  0  0  0  0  0  0  0
   38.5790   30.0370   32.9910 C   0  0  0  0  0  0  0  0  0  0  0  0
   38.7050   30.9950   31.9660 C   0  0  0  0  0  0  0  0  0  0  0  0
   39.5810   28.6850   34.6690 N   0  0  0  0  0  0  0  0  0  0  0  0
   40.2020   28.7100   35.8760 C   0  0  0  0  0  0  0  0  0  0  0  0
   41.1200   29.4700   36.1680 O   0  0  0  0  0  0  0  0  0  0  0  0
   39.7990   27.7130   36.9570 C   0  0  0  0  0  0  0  0  0  0  0  0
   40.1000   27.9850   38.3110 C   0  0  0  0  0  0  0  0  0  0  0  0
   39.7450   27.0410   39.2980 C   0  0  0  0  0  0  0  0  0  0  0  0
   39.1500   25.8840   38.9140 N   0  0  0  0  0  0  0  0  0  0  0  0
   38.8610   25.5970   37.6230 C   0  0  0  0  0  0  0  0  0  0  0  0
   39.1850   26.5000   36.6040 C   0  0  0  0  0  0  0  0  0  0  0  0
   40.0600   27.2770   40.6590 N   0  0  0  0  0  0  0  0  0  0  0  0
   39.9840   26.1460   41.5840 C   0  0  0  0  0  0  0  0  0  0  0  0
   39.8540   26.6370   43.0270 C   0  0  0  0  0  0  0  0  0  0  0  0
   40.7740   27.6980   43.2700 O   0  0  0  0  0  0  0  0  0  0  0  0
   40.3550   28.8400   42.5260 C   0  0  0  0  0  0  0  0  0  0  0  0
   40.5920   28.6050   41.0320 C   0  0  0  0  0  0  0  0  0  0  0  0
   46.4988   32.0937   29.3847 H   0  0  0  0  0  0  0  0  0  0  0  0
   47.7296   34.0981   28.1399 H   0  0  0  0  0  0  0  0  0  0  0  0
   48.3887   34.3540   29.8121 H   0  0  0  0  0  0  0  0  0  0  0  0
   48.6609   32.0477   27.9639 H   0  0  0  0  0  0  0  0  0  0  0  0
   51.3359   32.8470   28.7343 H   0  0  0  0  0  0  0  0  0  0  0  0
   50.8282   34.1358   29.4429 H   0  0  0  0  0  0  0  0  0  0  0  0
   49.2792   32.4000   31.1184 H   0  0  0  0  0  0  0  0  0  0  0  0
   49.9853   31.1212   30.5825 H   0  0  0  0  0  0  0  0  0  0  0  0
   45.0806   31.1834   29.9533 H   0  0  0  0  0  0  0  0  0  0  0  0
   42.9883   30.0527   30.7289 H   0  0  0  0  0  0  0  0  0  0  0  0
   44.0586   34.6894   32.2517 H   0  0  0  0  0  0  0  0  0  0  0  0
   41.9656   33.5620   33.0235 H   0  0  0  0  0  0  0  0  0  0  0  0
   40.1268   33.5662   31.0029 H   0  0  0  0  0  0  0  0  0  0  0  0
   40.9326   32.3730   29.9287 H   0  0  0  0  0  0  0  0  0  0  0  0
   39.1420   32.5159   29.9287 H   0  0  0  0  0  0  0  0  0  0  0  0
   41.8866   29.7950   33.8652 H   0  0  0  0  0  0  0  0  0  0  0  0
   37.5919   29.6266   33.2503 H   0  0  0  0  0  0  0  0  0  0  0  0
   37.8132   31.3283   31.4150 H   0  0  0  0  0  0  0  0  0  0  0  0
   38.9451   27.8959   34.4852 H   0  0  0  0  0  0  0  0  0  0  0  0
   40.6048   28.9211   38.5919 H   0  0  0  0  0  0  0  0  0  0  0  0
   38.3675   24.6463   37.3728 H   0  0  0  0  0  0  0  0  0  0  0  0
   38.9642   26.2655   35.5522 H   0  0  0  0  0  0  0  0  0  0  0  0
   39.1078   25.5308   41.3313 H   0  0  0  0  0  0  0  0  0  0  0  0
   40.9054   25.5520   41.4936 H   0  0  0  0  0  0  0  0  0  0  0  0
   38.8291   26.9985   43.1970 H   0  0  0  0  0  0  0  0  0  0  0  0
   40.0766   25.8048   43.7110 H   0  0  0  0  0  0  0  0  0  0  0  0
   39.2836   29.0167   42.7018 H   0  0  0  0  0  0  0  0  0  0  0  0
   40.9350   29.7164   42.8510 H   0  0  0  0  0  0  0  0  0  0  0  0
   40.0773   29.3842   40.4507 H   0  0  0  0  0  0  0  0  0  0  0  0
   41.6702   28.6449   40.8178 H   0  0  0  0  0  0  0  0  0  0  0  0
  2  1  2  0
  3  2  1  0
  4  3  1  0
  5  4  1  0
  6  5  1  0
  7  5  1  0
  7  6  1  0
  8  2  1  0
  9  8  2  0
 10  9  1  0
 11  8  1  0
 12 11  2  0
 13 10  2  0
 13 12  1  0
 14 13  1  0
 15 14  2  0
 16 15  1  0
 17 14  1  0
 18 17  2  0
 19 18  1  0
 20 15  1  0
 20 19  2  0
 21 18  1  0
 22 21  1  0
 23 22  2  0
 24 22  1  0
 25 24  2  0
 26 25  1  0
 27 26  2  0
 28 27  1  0
 29 28  2  0
 29 24  1  0
 30 26  1  0
 31 30  1  0
 32 31  1  0
 33 32  1  0
 34 33  1  0
 35 34  1  0
 35 30  1  0
  3 36  1  0
  4 37  1  0
  4 38  1  0
  5 39  1  6
  6 40  1  0
  6 41  1  0
  7 42  1  0
  7 43  1  0
  9 44  1  0
 10 45  1  0
 11 46  1  0
 12 47  1  0
 16 48  1  0
 16 49  1  0
 16 50  1  0
 17 51  1  0
 19 52  1  0
 20 53  1  0
 21 54  1  0
 25 55  1  0
 28 56  1  0
 29 57  1  0
 31 58  1  0
 31 59  1  0
 32 60  1  0
 32 61  1  0
 34 62  1  0
 34 63  1  0
 35 64  1  0
 35 65  1  0
M  END
>  <pdb_id>  (288) 
3d83

$$$$
5mwp_ECV
     RDKit          3D

 47 50  0  0  0  0  0  0  0  0999 V2000
    7.6680   19.6960   13.4720 C   0  0  0  0  0  0  0  0  0  0  0  0
    7.7920   17.3020   13.1310 C   0  0  0  0  0  0  0  0  0  0  0  0
    7.7620   17.3680   11.9100 O   0  0  0  0  0  0  0  0  0  0  0  0
    6.8580   14.5920   15.6860 C   0  0  0  0  0  0  0  0  0  0  0  0
    9.1180   14.1310   16.1940 C   0  0  0  0  0  0  0  0  0  0  0  0
   10.1220   13.1910   16.3610 C   0  0  0  0  0  0  0  0  0  0  0  0
   11.3290   13.6200   16.8690 C   0  0  0  0  0  0  0  0  0  0  0  0
   11.5460   14.9450   17.1940 C   0  0  0  0  0  0  0  0  0  0  0  0
   10.5420   15.8780   17.0320 C   0  0  0  0  0  0  0  0  0  0  0  0
    9.3110   15.4660   16.5420 C   0  0  0  0  0  0  0  0  0  0  0  0
    8.1960   17.5260   18.6070 C   0  0  0  0  0  0  0  0  0  0  0  0
    8.2310   16.4430   19.4730 C   0  0  0  0  0  0  0  0  0  0  0  0
    8.5750   16.6370   20.8070 C   0  0  0  0  0  0  0  0  0  0  0  0
    8.8740   17.9170   21.2520 C   0  0  0  0  0  0  0  0  0  0  0  0
   10.0700   19.2540   22.7630 C   0  0  0  0  0  0  0  0  0  0  0  0
    7.9000   18.3720   13.9500 N   0  0  0  0  0  0  0  0  0  0  0  0
    7.7900   15.9830   13.8490 C   0  0  0  0  0  0  0  0  0  0  0  0
    7.3000   15.9800   15.2900 C   0  0  2  0  0  0  0  0  0  0  0  0
    7.9250   13.6410   15.6390 O   0  0  0  0  0  0  0  0  0  0  0  0
   12.3030   12.7170   17.0280 F   0  0  0  0  0  0  0  0  0  0  0  0
    8.2570   16.3940   16.3180 N   0  0  0  0  0  0  0  0  0  0  0  0
    7.8470   17.4400   17.1630 C   0  0  0  0  0  0  0  0  0  0  0  0
    7.1730   18.3730   16.7490 O   0  0  0  0  0  0  0  0  0  0  0  0
    9.1780   18.1420   22.5880 O   0  0  0  0  0  0  0  0  0  0  0  0
    9.5520   20.5090   22.1250 C   0  0  0  0  0  0  0  0  0  0  0  0
    9.6090   21.6080   22.6690 O   0  0  0  0  0  0  0  0  0  0  0  0
    9.0730   20.2820   20.8590 N   0  0  0  0  0  0  0  0  0  0  0  0
    8.8080   18.9910   20.3900 C   0  0  0  0  0  0  0  0  0  0  0  0
    8.4920   18.7980   19.0630 C   0  0  0  0  0  0  0  0  0  0  0  0
    7.5484   20.3786   14.3263 H   0  0  0  0  0  0  0  0  0  0  0  0
    8.5230   20.0202   12.8606 H   0  0  0  0  0  0  0  0  0  0  0  0
    6.7537   19.7101   12.8606 H   0  0  0  0  0  0  0  0  0  0  0  0
    6.4625   14.6274   16.7118 H   0  0  0  0  0  0  0  0  0  0  0  0
    6.0913   14.2685   14.9667 H   0  0  0  0  0  0  0  0  0  0  0  0
    9.9607   12.1355   16.0964 H   0  0  0  0  0  0  0  0  0  0  0  0
   12.5254   15.2585   17.5845 H   0  0  0  0  0  0  0  0  0  0  0  0
   10.7153   16.9337   17.2878 H   0  0  0  0  0  0  0  0  0  0  0  0
    7.9877   15.4348   19.1065 H   0  0  0  0  0  0  0  0  0  0  0  0
    8.6096   15.7848   21.5017 H   0  0  0  0  0  0  0  0  0  0  0  0
   10.2028   19.4341   23.8400 H   0  0  0  0  0  0  0  0  0  0  0  0
   11.0230   18.9992   22.2762 H   0  0  0  0  0  0  0  0  0  0  0  0
    8.1546   18.2287   14.9377 H   0  0  0  0  0  0  0  0  0  0  0  0
    7.1473   15.2961   13.2788 H   0  0  0  0  0  0  0  0  0  0  0  0
    8.8482   15.6885   13.9071 H   0  0  0  0  0  0  0  0  0  0  0  0
    6.4946   16.7289   15.2692 H   0  0  0  0  0  0  0  0  0  0  0  0
    8.9038   21.0850   20.2366 H   0  0  0  0  0  0  0  0  0  0  0  0
    8.4751   19.6515   18.3693 H   0  0  0  0  0  0  0  0  0  0  0  0
  3  2  2  0
  6  5  2  0
  7  6  1  0
  8  7  2  0
  9  8  1  0
 10  5  1  0
 10  9  2  0
 12 11  2  0
 13 12  1  0
 14 13  2  0
 16  2  1  0
 16  1  1  0
 17  2  1  0
 18 17  1  0
 18  4  1  0
 19  5  1  0
 19  4  1  0
 20  7  1  0
 21 18  1  0
 21 10  1  0
 22 21  1  0
 22 11  1  0
 23 22  2  0
 24 14  1  0
 24 15  1  0
 25 15  1  0
 26 25  2  0
 27 25  1  0
 28 27  1  0
 28 14  1  0
 29 28  2  0
 29 11  1  0
  1 30  1  0
  1 31  1  0
  1 32  1  0
  4 33  1  0
  4 34  1  0
  6 35  1  0
  8 36  1  0
  9 37  1  0
 12 38  1  0
 13 39  1  0
 15 40  1  0
 15 41  1  0
 16 42  1  0
 17 43  1  0
 17 44  1  0
 18 45  1  6
 27 46  1  0
 29 47  1  0
M  END
>  <pdb_id>  (846) 
5mwp

$$$$
4o0b_2QA
     RDKit          3D

 59 63  0  0  0  0  0  0  0  0999 V2000
    6.6790   -9.8740  -23.3700 C   0  0  0  0  0  0  0  0  0  0  0  0
   -1.2750  -10.9170  -26.3500 O   0  0  0  0  0  0  0  0  0  0  0  0
    5.3350   -9.6570  -23.3290 C   0  0  0  0  0  0  0  0  0  0  0  0
    5.6090  -11.7560  -24.0460 C   0  0  0  0  0  0  0  0  0  0  0  0
    6.8660  -11.2280  -23.8170 C   0  0  0  0  0  0  0  0  0  0  0  0
    8.0490  -12.0920  -24.0490 C   0  0  0  0  0  0  0  0  0  0  0  0
    7.8190  -13.5160  -24.5000 C   0  0  0  0  0  0  0  0  0  0  0  0
   -0.8330  -11.3240  -25.2810 C   0  0  0  0  0  0  0  0  0  0  0  0
   -1.5720  -12.1630  -24.5250 N   0  0  0  0  0  0  0  0  0  0  0  0
   -1.1120  -12.8330  -23.2940 C   0  0  0  0  0  0  0  0  0  0  0  0
    0.3370  -13.2160  -23.5090 C   0  0  0  0  0  0  0  0  0  0  0  0
    1.1460  -12.0390  -24.0020 C   0  0  0  0  0  0  0  0  0  0  0  0
    2.4830  -11.9360  -23.6290 C   0  0  0  0  0  0  0  0  0  0  0  0
    0.5520  -11.0140  -24.7990 C   0  0  0  0  0  0  0  0  0  0  0  0
    1.3100   -9.8570  -25.1430 C   0  0  0  0  0  0  0  0  0  0  0  0
    0.6770   -8.6590  -25.8390 C   0  0  2  0  0  0  0  0  0  0  0  0
    1.1070   -8.3970  -27.2980 C   0  0  0  0  0  0  0  0  0  0  0  0
    0.6430   -6.9670  -27.5890 C   0  0  0  0  0  0  0  0  0  0  0  0
    0.4050   -6.2930  -26.2500 C   0  0  0  0  0  0  0  0  0  0  0  0
    0.8900   -7.2630  -25.1960 C   0  0  0  0  0  0  0  0  0  0  0  0
    2.6580   -9.7960  -24.7640 C   0  0  0  0  0  0  0  0  0  0  0  0
    3.2390  -10.8340  -24.0320 C   0  0  0  0  0  0  0  0  0  0  0  0
    4.6520  -10.7890  -23.7330 N   0  0  0  0  0  0  0  0  0  0  0  0
    5.3550  -13.1290  -24.5950 C   0  0  0  0  0  0  0  0  0  0  0  0
    6.5480  -13.7570  -25.3290 C   0  0  2  0  0  0  0  0  0  0  0  0
    6.3110  -15.2570  -25.4870 C   0  0  0  0  0  0  0  0  0  0  0  0
    6.7000  -13.1340  -26.7210 C   0  0  0  0  0  0  0  0  0  0  0  0
    9.1940  -11.6800  -23.9090 O   0  0  0  0  0  0  0  0  0  0  0  0
    7.7270   -8.8460  -23.0310 C   0  0  0  0  0  0  0  0  0  0  0  0
    4.8603   -8.7146  -23.0184 H   0  0  0  0  0  0  0  0  0  0  0  0
    8.6825  -13.8208  -25.1095 H   0  0  0  0  0  0  0  0  0  0  0  0
    7.6917  -14.1044  -23.5794 H   0  0  0  0  0  0  0  0  0  0  0  0
   -2.5367  -12.3509  -24.8330 H   0  0  0  0  0  0  0  0  0  0  0  0
   -1.1980  -12.1483  -22.4374 H   0  0  0  0  0  0  0  0  0  0  0  0
   -1.7239  -13.7219  -23.0806 H   0  0  0  0  0  0  0  0  0  0  0  0
    0.7600  -13.5685  -22.5567 H   0  0  0  0  0  0  0  0  0  0  0  0
    0.3783  -14.0099  -24.2693 H   0  0  0  0  0  0  0  0  0  0  0  0
    2.9445  -12.7241  -23.0158 H   0  0  0  0  0  0  0  0  0  0  0  0
   -0.3607   -9.0122  -25.7467 H   0  0  0  0  0  0  0  0  0  0  0  0
    2.1991   -8.4791  -27.4013 H   0  0  0  0  0  0  0  0  0  0  0  0
    0.6722   -9.1262  -27.9974 H   0  0  0  0  0  0  0  0  0  0  0  0
    1.4184   -6.4259  -28.1511 H   0  0  0  0  0  0  0  0  0  0  0  0
   -0.2753   -6.9693  -28.1945 H   0  0  0  0  0  0  0  0  0  0  0  0
    0.9712   -5.3517  -26.1911 H   0  0  0  0  0  0  0  0  0  0  0  0
   -0.6578   -6.0469  -26.1089 H   0  0  0  0  0  0  0  0  0  0  0  0
    1.9535   -7.0951  -24.9707 H   0  0  0  0  0  0  0  0  0  0  0  0
    0.3543   -7.1518  -24.2417 H   0  0  0  0  0  0  0  0  0  0  0  0
    3.2641   -8.9224  -25.0457 H   0  0  0  0  0  0  0  0  0  0  0  0
    5.0825  -13.7880  -23.7574 H   0  0  0  0  0  0  0  0  0  0  0  0
    4.5529  -13.0222  -25.3402 H   0  0  0  0  0  0  0  0  0  0  0  0
    6.2373  -15.7232  -24.4934 H   0  0  0  0  0  0  0  0  0  0  0  0
    5.3753  -15.4241  -26.0407 H   0  0  0  0  0  0  0  0  0  0  0  0
    7.1496  -15.7044  -26.0407 H   0  0  0  0  0  0  0  0  0  0  0  0
    6.9596  -12.0699  -26.6201 H   0  0  0  0  0  0  0  0  0  0  0  0
    7.4973  -13.6554  -27.2710 H   0  0  0  0  0  0  0  0  0  0  0  0
    5.7522  -13.2296  -27.2710 H   0  0  0  0  0  0  0  0  0  0  0  0
    7.8155   -8.7592  -21.9380 H   0  0  0  0  0  0  0  0  0  0  0  0
    8.6943   -9.1553  -23.4537 H   0  0  0  0  0  0  0  0  0  0  0  0
    7.4364   -7.8729  -23.4537 H   0  0  0  0  0  0  0  0  0  0  0  0
  3  1  2  0
  5  4  2  0
  5  1  1  0
  6  5  1  0
  7  6  1  0
  8  2  2  0
  9  8  1  0
 10  9  1  0
 11 10  1  0
 12 11  1  0
 13 12  1  0
 14 12  2  0
 14  8  1  0
 15 14  1  0
 16 15  1  0
 17 16  1  0
 18 17  1  0
 19 18  1  0
 20 19  1  0
 20 16  1  0
 21 15  2  0
 22 13  2  0
 22 21  1  0
 23 22  1  0
 23  3  1  0
 23  4  1  0
 24  4  1  0
 25 24  1  0
 25  7  1  0
 25 26  1  6
 27 25  1  0
 28  6  2  0
 29  1  1  0
  3 30  1  0
  7 31  1  0
  7 32  1  0
  9 33  1  0
 10 34  1  0
 10 35  1  0
 11 36  1  0
 11 37  1  0
 13 38  1  0
 16 39  1  6
 17 40  1  0
 17 41  1  0
 18 42  1  0
 18 43  1  0
 19 44  1  0
 19 45  1  0
 20 46  1  0
 20 47  1  0
 21 48  1  0
 24 49  1  0
 24 50  1  0
 26 51  1  0
 26 52  1  0
 26 53  1  0
 27 54  1  0
 27 55  1  0
 27 56  1  0
 29 57  1  0
 29 58  1  0
 29 59  1  0
M  END
>  <pdb_id>  (591) 
4o0b

$$$$
